
     RDKit          3D

128136  0  0  0  0  0  0  0  0999 V2000
  -10.6850   -0.7700    1.7496 C   0  0  0  0  0  0  0  0  0  0  0  0
  -10.8737    0.1105    0.5111 C   0  0  0  0  0  0  0  0  0  0  0  0
  -12.3647    0.1775    0.1419 C   0  0  0  0  0  0  0  0  0  0  0  0
  -10.2369    1.4812    0.7070 C   0  0  0  0  0  0  0  0  0  0  0  0
  -10.9183    2.3954    1.5487 C   0  0  0  0  0  0  0  0  0  0  0  0
  -10.4425    3.6820    1.7935 C   0  0  0  0  0  0  0  0  0  0  0  0
   -9.2607    4.0947    1.2075 C   0  0  0  0  0  0  0  0  0  0  0  0
   -8.5564    3.2108    0.3932 C   0  0  0  0  0  0  0  0  0  0  0  0
   -9.0059    1.8868    0.1304 C   0  0  0  0  0  0  0  0  0  0  0  0
   -8.0587    1.0633   -0.7714 C   0  0  2  0  0  0  0  0  0  0  0  0
   -8.2430    1.4635   -2.2836 C   0  0  0  0  0  0  0  0  0  0  0  0
   -9.0571    0.6134   -3.1676 N   0  0  0  0  0  0  0  0  0  0  0  0
  -10.4072    1.1358   -3.3378 C   0  0  0  0  0  0  0  0  0  0  0  0
   -9.0678   -0.7948   -2.7525 C   0  0  0  0  0  0  0  0  0  0  0  0
   -7.9553   -1.1788   -1.7563 C   0  0  0  0  0  0  0  0  0  0  0  0
   -8.0156   -0.3924   -0.5091 N   0  0  0  0  0  0  0  0  0  0  0  0
   -7.0250   -0.9159    0.4450 C   0  0  0  0  0  0  0  0  0  0  0  0
   -6.7949   -0.0674    1.7101 C   0  0  0  0  0  0  0  0  0  0  0  0
   -5.2633   -0.3426    1.5502 C   0  0  0  0  0  0  0  0  0  0  0  0
   -4.3981    0.8967    1.8011 C   0  0  0  0  0  0  0  0  0  0  0  0
   -2.9309    0.5829    1.5065 C   0  0  0  0  0  0  0  0  0  0  0  0
   -2.4954   -0.5713    2.3202 N   0  0  0  0  0  0  0  0  0  0  0  0
   -1.0975   -0.6998    2.3883 C   0  0  0  0  0  0  0  0  0  0  0  0
   -0.3474    0.3070    3.0177 C   0  0  0  0  0  0  0  0  0  0  0  0
    1.0461    0.2301    3.1282 C   0  0  0  0  0  0  0  0  0  0  0  0
    1.7406   -0.8690    2.6106 C   0  0  0  0  0  0  0  0  0  0  0  0
    3.2131   -0.9001    2.8208 C   0  0  0  0  0  0  0  0  0  0  0  0
    3.8442    0.1324    2.9886 O   0  0  0  0  0  0  0  0  0  0  0  0
    3.8032   -2.1665    2.8498 N   0  0  0  0  0  0  0  0  0  0  0  0
    5.4050   -2.4618    3.1620 S   0  0  0  0  0  0  0  0  0  0  0  0
    5.7470   -1.8379    4.4233 O   0  0  0  0  0  0  0  0  0  0  0  0
    5.6009   -3.8876    2.9967 O   0  0  0  0  0  0  0  0  0  0  0  0
    6.2674   -1.6198    1.8573 C   0  0  0  0  0  0  0  0  0  0  0  0
    6.9990   -0.4758    2.1858 C   0  0  0  0  0  0  0  0  0  0  0  0
    7.7425    0.1948    1.2109 C   0  0  0  0  0  0  0  0  0  0  0  0
    7.8341   -0.2815   -0.1059 C   0  0  0  0  0  0  0  0  0  0  0  0
    8.5279    0.4473   -1.0884 N   0  0  0  0  0  0  0  0  0  0  0  0
    9.5508    1.4255   -0.7154 C   0  0  0  0  0  0  0  0  0  0  0  0
   10.2668    1.9694   -1.9719 C   0  0  1  0  0  0  0  0  0  0  0  0
   11.0497    3.2528   -1.6446 C   0  0  0  0  0  0  0  0  0  0  0  0
   12.3042    2.9888   -0.8067 C   0  0  0  0  0  0  0  0  0  0  0  0
   13.2341    1.9571   -1.4622 C   0  0  2  0  0  0  0  0  0  0  0  0
   14.4250    1.6550   -0.5512 C   0  0  0  0  0  0  0  0  0  0  0  0
   13.7414    2.5326   -2.6695 O   0  0  0  0  0  0  0  0  0  0  0  0
   12.4721    0.6686   -1.8080 C   0  0  0  0  0  0  0  0  0  0  0  0
   11.2081    0.9424   -2.6285 C   0  0  0  0  0  0  0  0  0  0  0  0
    7.0647   -1.4372   -0.4197 C   0  0  0  0  0  0  0  0  0  0  0  0
    7.1448   -2.0043   -1.7692 N   0  0  0  0  0  0  0  0  0  0  0  0
    8.1926   -1.8505   -2.4165 O   0  0  0  0  0  0  0  0  0  0  0  0
    6.1656   -2.6483   -2.1783 O   0  0  0  0  0  0  0  0  0  0  0  0
    6.2640   -2.0956    0.5452 C   0  0  0  0  0  0  0  0  0  0  0  0
    5.4663   -3.1719    0.2543 O   0  0  0  0  0  0  0  0  0  0  0  0
    1.0084   -1.8712    1.9653 C   0  0  0  0  0  0  0  0  0  0  0  0
    1.6081   -2.9750    1.3993 O   0  0  0  0  0  0  0  0  0  0  0  0
    2.0186   -2.8150    0.0746 C   0  0  0  0  0  0  0  0  0  0  0  0
    2.3884   -3.9749   -0.6035 C   0  0  0  0  0  0  0  0  0  0  0  0
    2.8512   -3.9978   -1.8797 N   0  0  0  0  0  0  0  0  0  0  0  0
    2.8956   -2.7505   -2.3940 C   0  0  0  0  0  0  0  0  0  0  0  0
    3.3201   -2.4145   -3.6500 N   0  0  0  0  0  0  0  0  0  0  0  0
    3.2406   -1.0513   -3.8146 C   0  0  0  0  0  0  0  0  0  0  0  0
    2.7581   -0.5064   -2.6402 C   0  0  0  0  0  0  0  0  0  0  0  0
    2.5404   -1.5735   -1.7394 C   0  0  0  0  0  0  0  0  0  0  0  0
    2.0890   -1.5714   -0.4586 N   0  0  0  0  0  0  0  0  0  0  0  0
   -0.3924   -1.7965    1.8766 C   0  0  0  0  0  0  0  0  0  0  0  0
   -3.2825   -1.7930    2.0873 C   0  0  0  0  0  0  0  0  0  0  0  0
   -4.7584   -1.5255    2.3893 C   0  0  0  0  0  0  0  0  0  0  0  0
   -5.5578   -0.6520    0.0440 C   0  0  0  0  0  0  0  0  0  0  0  0
   -9.6287   -0.8664    2.0149 H   0  0  0  0  0  0  0  0  0  0  0  0
  -11.2068   -0.3602    2.6216 H   0  0  0  0  0  0  0  0  0  0  0  0
  -11.0766   -1.7771    1.5698 H   0  0  0  0  0  0  0  0  0  0  0  0
  -10.4059   -0.3887   -0.3311 H   0  0  0  0  0  0  0  0  0  0  0  0
  -12.7240   -0.8126   -0.1607 H   0  0  0  0  0  0  0  0  0  0  0  0
  -12.9884    0.5029    0.9810 H   0  0  0  0  0  0  0  0  0  0  0  0
  -12.5384    0.8654   -0.6918 H   0  0  0  0  0  0  0  0  0  0  0  0
  -11.8456    2.1036    2.0380 H   0  0  0  0  0  0  0  0  0  0  0  0
  -10.9977    4.3538    2.4420 H   0  0  0  0  0  0  0  0  0  0  0  0
   -8.8791    5.0955    1.3881 H   0  0  0  0  0  0  0  0  0  0  0  0
   -7.6217    3.5641   -0.0413 H   0  0  0  0  0  0  0  0  0  0  0  0
   -7.0575    1.4513   -0.5457 H   0  0  0  0  0  0  0  0  0  0  0  0
   -7.2356    1.4239   -2.7246 H   0  0  0  0  0  0  0  0  0  0  0  0
   -8.5321    2.5182   -2.3823 H   0  0  0  0  0  0  0  0  0  0  0  0
  -10.9517    1.1937   -2.3921 H   0  0  0  0  0  0  0  0  0  0  0  0
  -10.9799    0.5080   -4.0297 H   0  0  0  0  0  0  0  0  0  0  0  0
  -10.3793    2.1386   -3.7784 H   0  0  0  0  0  0  0  0  0  0  0  0
  -10.0343   -1.0752   -2.3166 H   0  0  0  0  0  0  0  0  0  0  0  0
   -8.9579   -1.4122   -3.6522 H   0  0  0  0  0  0  0  0  0  0  0  0
   -6.9791   -1.0658   -2.2460 H   0  0  0  0  0  0  0  0  0  0  0  0
   -8.0732   -2.2445   -1.5225 H   0  0  0  0  0  0  0  0  0  0  0  0
   -7.2053   -1.9696    0.7007 H   0  0  0  0  0  0  0  0  0  0  0  0
   -7.0356    0.9969    1.6739 H   0  0  0  0  0  0  0  0  0  0  0  0
   -7.2509   -0.4708    2.6207 H   0  0  0  0  0  0  0  0  0  0  0  0
   -4.5023    1.2142    2.8466 H   0  0  0  0  0  0  0  0  0  0  0  0
   -4.7240    1.7375    1.1772 H   0  0  0  0  0  0  0  0  0  0  0  0
   -2.7959    0.3542    0.4413 H   0  0  0  0  0  0  0  0  0  0  0  0
   -2.3472    1.4848    1.7236 H   0  0  0  0  0  0  0  0  0  0  0  0
   -0.8570    1.1603    3.4615 H   0  0  0  0  0  0  0  0  0  0  0  0
    1.5802    1.0297    3.6391 H   0  0  0  0  0  0  0  0  0  0  0  0
    3.2830   -3.0076    2.6285 H   0  0  0  0  0  0  0  0  0  0  0  0
    6.9785   -0.0773    3.2000 H   0  0  0  0  0  0  0  0  0  0  0  0
    8.2530    1.1039    1.5188 H   0  0  0  0  0  0  0  0  0  0  0  0
    8.8190   -0.1515   -1.8683 H   0  0  0  0  0  0  0  0  0  0  0  0
    9.0639    2.2650   -0.2052 H   0  0  0  0  0  0  0  0  0  0  0  0
   10.2689    0.9761   -0.0211 H   0  0  0  0  0  0  0  0  0  0  0  0
    9.4942    2.2322   -2.7075 H   0  0  0  0  0  0  0  0  0  0  0  0
   10.4047    3.9680   -1.1203 H   0  0  0  0  0  0  0  0  0  0  0  0
   11.3420    3.7390   -2.5843 H   0  0  0  0  0  0  0  0  0  0  0  0
   12.8344    3.9415   -0.6815 H   0  0  0  0  0  0  0  0  0  0  0  0
   12.0105    2.6512    0.1945 H   0  0  0  0  0  0  0  0  0  0  0  0
   15.1144    0.9502   -1.0298 H   0  0  0  0  0  0  0  0  0  0  0  0
   15.0018    2.5650   -0.3501 H   0  0  0  0  0  0  0  0  0  0  0  0
   14.1042    1.2287    0.4049 H   0  0  0  0  0  0  0  0  0  0  0  0
   14.3409    1.8876   -3.0829 H   0  0  0  0  0  0  0  0  0  0  0  0
   12.2048    0.1302   -0.8912 H   0  0  0  0  0  0  0  0  0  0  0  0
   13.1164   -0.0006   -2.3923 H   0  0  0  0  0  0  0  0  0  0  0  0
   11.5041    1.3226   -3.6151 H   0  0  0  0  0  0  0  0  0  0  0  0
   10.6894   -0.0033   -2.8169 H   0  0  0  0  0  0  0  0  0  0  0  0
    5.3842   -3.3035   -0.7165 H   0  0  0  0  0  0  0  0  0  0  0  0
    2.3301   -4.9439   -0.1180 H   0  0  0  0  0  0  0  0  0  0  0  0
    3.6639   -3.0815   -4.3263 H   0  0  0  0  0  0  0  0  0  0  0  0
    3.5414   -0.5905   -4.7464 H   0  0  0  0  0  0  0  0  0  0  0  0
    2.5869    0.5436   -2.4467 H   0  0  0  0  0  0  0  0  0  0  0  0
   -0.9139   -2.6002    1.3664 H   0  0  0  0  0  0  0  0  0  0  0  0
   -3.1682   -2.1291    1.0494 H   0  0  0  0  0  0  0  0  0  0  0  0
   -2.9440   -2.6000    2.7489 H   0  0  0  0  0  0  0  0  0  0  0  0
   -4.8767   -1.2954    3.4561 H   0  0  0  0  0  0  0  0  0  0  0  0
   -5.3398   -2.4334    2.1921 H   0  0  0  0  0  0  0  0  0  0  0  0
   -5.0402   -1.5215   -0.3745 H   0  0  0  0  0  0  0  0  0  0  0  0
   -5.3679    0.1922   -0.6274 H   0  0  0  0  0  0  0  0  0  0  0  0
  1  2  1  0
  2  3  1  0
  2  4  1  0
  4  5  2  0
  5  6  1  0
  6  7  2  0
  7  8  1  0
  8  9  2  0
  9 10  1  0
 10 11  1  0
 11 12  1  0
 12 13  1  0
 12 14  1  0
 14 15  1  0
 15 16  1  0
 16 17  1  0
 17 18  1  0
 18 19  1  0
 19 20  1  0
 20 21  1  0
 21 22  1  0
 22 23  1  0
 23 24  2  0
 24 25  1  0
 25 26  2  0
 26 27  1  0
 27 28  2  0
 27 29  1  0
 29 30  1  0
 30 31  2  0
 30 32  2  0
 30 33  1  0
 33 34  2  0
 34 35  1  0
 35 36  2  0
 36 37  1  0
 37 38  1  0
 38 39  1  0
 39 40  1  0
 40 41  1  0
 41 42  1  0
 42 43  1  0
 42 44  1  6
 42 45  1  0
 45 46  1  0
 36 47  1  0
 47 48  1  0
 48 49  2  0
 48 50  1  0
 47 51  2  0
 51 52  1  0
 26 53  1  0
 53 54  1  0
 54 55  1  0
 55 56  2  0
 56 57  1  0
 57 58  2  0
 58 59  1  0
 59 60  1  0
 60 61  2  0
 61 62  1  0
 62 63  2  0
 53 64  2  0
 22 65  1  0
 65 66  1  0
 19 67  1  0
  9  4  1  0
 16 10  1  0
 67 17  1  0
 66 19  1  0
 64 23  1  0
 51 33  1  0
 63 55  1  0
 46 39  1  0
 62 58  1  0
  1 68  1  0
  1 69  1  0
  1 70  1  0
  2 71  1  0
  3 72  1  0
  3 73  1  0
  3 74  1  0
  5 75  1  0
  6 76  1  0
  7 77  1  0
  8 78  1  0
 10 79  1  1
 11 80  1  0
 11 81  1  0
 13 82  1  0
 13 83  1  0
 13 84  1  0
 14 85  1  0
 14 86  1  0
 15 87  1  0
 15 88  1  0
 17 89  1  0
 18 90  1  0
 18 91  1  0
 20 92  1  0
 20 93  1  0
 21 94  1  0
 21 95  1  0
 24 96  1  0
 25 97  1  0
 29 98  1  0
 34 99  1  0
 35100  1  0
 37101  1  0
 38102  1  0
 38103  1  0
 39104  1  6
 40105  1  0
 40106  1  0
 41107  1  0
 41108  1  0
 43109  1  0
 43110  1  0
 43111  1  0
 44112  1  0
 45113  1  0
 45114  1  0
 46115  1  0
 46116  1  0
 52117  1  0
 56118  1  0
 59119  1  0
 60120  1  0
 61121  1  0
 64122  1  0
 65123  1  0
 65124  1  0
 66125  1  0
 66126  1  0
 67127  1  0
 67128  1  0
M  CHG  2  48   1  50  -1
M  END
$$$$

     RDKit          3D

128136  0  0  0  0  0  0  0  0999 V2000
  -12.0117    3.3581   -0.8536 C   0  0  0  0  0  0  0  0  0  0  0  0
  -10.6315    2.7881   -0.5031 C   0  0  0  0  0  0  0  0  0  0  0  0
   -9.5357    3.8303   -0.7408 C   0  0  0  0  0  0  0  0  0  0  0  0
  -10.5669    2.2452    0.9230 C   0  0  0  0  0  0  0  0  0  0  0  0
  -10.9582    3.0957    1.9808 C   0  0  0  0  0  0  0  0  0  0  0  0
  -10.9379    2.6719    3.3081 C   0  0  0  0  0  0  0  0  0  0  0  0
  -10.5207    1.3865    3.6135 C   0  0  0  0  0  0  0  0  0  0  0  0
  -10.1145    0.5315    2.5907 C   0  0  0  0  0  0  0  0  0  0  0  0
  -10.1118    0.9364    1.2367 C   0  0  0  0  0  0  0  0  0  0  0  0
   -9.6527   -0.0653    0.1649 C   0  0  2  0  0  0  0  0  0  0  0  0
  -10.8973   -0.8081   -0.4255 C   0  0  0  0  0  0  0  0  0  0  0  0
  -10.4902   -1.8573   -1.3752 N   0  0  0  0  0  0  0  0  0  0  0  0
  -11.6375   -2.4720   -2.0319 C   0  0  0  0  0  0  0  0  0  0  0  0
   -9.6396   -2.8583   -0.7102 C   0  0  0  0  0  0  0  0  0  0  0  0
   -8.9901   -2.3826    0.6134 C   0  0  0  0  0  0  0  0  0  0  0  0
   -8.5604   -0.9700    0.6660 N   0  0  0  0  0  0  0  0  0  0  0  0
   -7.3426   -0.7823   -0.1406 C   0  0  0  0  0  0  0  0  0  0  0  0
   -6.1265   -1.4374    0.5644 C   0  0  0  0  0  0  0  0  0  0  0  0
   -5.3083   -0.1458    0.2428 C   0  0  0  0  0  0  0  0  0  0  0  0
   -4.3881    0.2651    1.3984 C   0  0  0  0  0  0  0  0  0  0  0  0
   -3.3201    1.2473    0.9214 C   0  0  0  0  0  0  0  0  0  0  0  0
   -2.4857    0.6275   -0.1195 N   0  0  0  0  0  0  0  0  0  0  0  0
   -1.1346    0.9298   -0.2211 C   0  0  0  0  0  0  0  0  0  0  0  0
   -0.6114    2.1396    0.2672 C   0  0  0  0  0  0  0  0  0  0  0  0
    0.7476    2.4637    0.1589 C   0  0  0  0  0  0  0  0  0  0  0  0
    1.6318    1.5800   -0.4610 C   0  0  0  0  0  0  0  0  0  0  0  0
    3.0412    2.0093   -0.6001 C   0  0  0  0  0  0  0  0  0  0  0  0
    3.6294    2.5440    0.3263 O   0  0  0  0  0  0  0  0  0  0  0  0
    3.5979    1.7907   -1.8655 N   0  0  0  0  0  0  0  0  0  0  0  0
    5.1385    2.2255   -2.3113 S   0  0  0  0  0  0  0  0  0  0  0  0
    5.4651    3.5151   -1.7412 O   0  0  0  0  0  0  0  0  0  0  0  0
    5.2183    2.0452   -3.7458 O   0  0  0  0  0  0  0  0  0  0  0  0
    6.1291    0.9847   -1.5099 C   0  0  0  0  0  0  0  0  0  0  0  0
    6.7593    1.3210   -0.3124 C   0  0  0  0  0  0  0  0  0  0  0  0
    7.5825    0.3954    0.3331 C   0  0  0  0  0  0  0  0  0  0  0  0
    7.8513   -0.8741   -0.2099 C   0  0  0  0  0  0  0  0  0  0  0  0
    8.6274   -1.7946    0.5154 N   0  0  0  0  0  0  0  0  0  0  0  0
    9.6981   -1.3693    1.4209 C   0  0  0  0  0  0  0  0  0  0  0  0
   10.8596   -0.6772    0.6847 C   0  0  1  0  0  0  0  0  0  0  0  0
   11.9058   -0.1727    1.6828 C   0  0  0  0  0  0  0  0  0  0  0  0
   13.0217    0.6379    1.0071 C   0  0  0  0  0  0  0  0  0  0  0  0
   13.3108    0.2131   -0.4458 C   0  0  2  0  0  0  0  0  0  0  0  0
   14.7644    0.5101   -0.8198 C   0  0  0  0  0  0  0  0  0  0  0  0
   12.4737    0.9681   -1.3273 O   0  0  0  0  0  0  0  0  0  0  0  0
   12.9828   -1.2675   -0.6573 C   0  0  0  0  0  0  0  0  0  0  0  0
   11.5137   -1.6018   -0.3621 C   0  0  0  0  0  0  0  0  0  0  0  0
    7.1845   -1.2073   -1.4254 C   0  0  0  0  0  0  0  0  0  0  0  0
    7.4092   -2.5272   -2.0552 N   0  0  0  0  0  0  0  0  0  0  0  0
    8.2278   -3.3100   -1.5456 O   0  0  0  0  0  0  0  0  0  0  0  0
    6.7835   -2.7799   -3.1014 O   0  0  0  0  0  0  0  0  0  0  0  0
    6.3126   -0.2852   -2.0647 C   0  0  0  0  0  0  0  0  0  0  0  0
    5.5792   -0.5941   -3.1830 O   0  0  0  0  0  0  0  0  0  0  0  0
    1.1491    0.3544   -0.9255 C   0  0  0  0  0  0  0  0  0  0  0  0
    1.9435   -0.6018   -1.5188 O   0  0  0  0  0  0  0  0  0  0  0  0
    2.8226   -1.2846   -0.6768 C   0  0  0  0  0  0  0  0  0  0  0  0
    3.5285   -2.3430   -1.2447 C   0  0  0  0  0  0  0  0  0  0  0  0
    4.4902   -3.0576   -0.6024 N   0  0  0  0  0  0  0  0  0  0  0  0
    4.6555   -2.6058    0.6598 C   0  0  0  0  0  0  0  0  0  0  0  0
    5.5626   -3.0737    1.5704 N   0  0  0  0  0  0  0  0  0  0  0  0
    5.4460   -2.3646    2.7439 C   0  0  0  0  0  0  0  0  0  0  0  0
    4.4528   -1.4199    2.5752 C   0  0  0  0  0  0  0  0  0  0  0  0
    3.9556   -1.5624    1.2602 C   0  0  0  0  0  0  0  0  0  0  0  0
    2.9988   -0.8645    0.5972 N   0  0  0  0  0  0  0  0  0  0  0  0
   -0.2176    0.0507   -0.8220 C   0  0  0  0  0  0  0  0  0  0  0  0
   -3.0966   -0.4263   -0.9402 C   0  0  0  0  0  0  0  0  0  0  0  0
   -4.5894   -0.1542   -1.1173 C   0  0  0  0  0  0  0  0  0  0  0  0
   -6.6900    0.5846    0.2038 C   0  0  0  0  0  0  0  0  0  0  0  0
  -12.8015    2.6270   -0.6459 H   0  0  0  0  0  0  0  0  0  0  0  0
  -12.0603    3.6066   -1.9194 H   0  0  0  0  0  0  0  0  0  0  0  0
  -12.2391    4.2731   -0.2964 H   0  0  0  0  0  0  0  0  0  0  0  0
  -10.4689    1.9841   -1.2232 H   0  0  0  0  0  0  0  0  0  0  0  0
   -8.5449    3.4142   -0.5252 H   0  0  0  0  0  0  0  0  0  0  0  0
   -9.6703    4.7163   -0.1104 H   0  0  0  0  0  0  0  0  0  0  0  0
   -9.5403    4.1612   -1.7854 H   0  0  0  0  0  0  0  0  0  0  0  0
  -11.2829    4.1140    1.7780 H   0  0  0  0  0  0  0  0  0  0  0  0
  -11.2463    3.3492    4.0999 H   0  0  0  0  0  0  0  0  0  0  0  0
  -10.5005    1.0474    4.6451 H   0  0  0  0  0  0  0  0  0  0  0  0
   -9.7812   -0.4675    2.8634 H   0  0  0  0  0  0  0  0  0  0  0  0
   -9.2225    0.5145   -0.6589 H   0  0  0  0  0  0  0  0  0  0  0  0
  -11.5113   -1.2349    0.3809 H   0  0  0  0  0  0  0  0  0  0  0  0
  -11.5309   -0.0780   -0.9441 H   0  0  0  0  0  0  0  0  0  0  0  0
  -12.2036   -1.7231   -2.5984 H   0  0  0  0  0  0  0  0  0  0  0  0
  -11.3087   -3.2306   -2.7518 H   0  0  0  0  0  0  0  0  0  0  0  0
  -12.3172   -2.9471   -1.3158 H   0  0  0  0  0  0  0  0  0  0  0  0
   -8.8491   -3.1415   -1.4165 H   0  0  0  0  0  0  0  0  0  0  0  0
  -10.2033   -3.7729   -0.4831 H   0  0  0  0  0  0  0  0  0  0  0  0
   -9.7241   -2.5259    1.4180 H   0  0  0  0  0  0  0  0  0  0  0  0
   -8.1669   -3.0593    0.8728 H   0  0  0  0  0  0  0  0  0  0  0  0
   -7.4215   -0.9945   -1.2131 H   0  0  0  0  0  0  0  0  0  0  0  0
   -5.7588   -2.3600    0.1036 H   0  0  0  0  0  0  0  0  0  0  0  0
   -6.2509   -1.6214    1.6405 H   0  0  0  0  0  0  0  0  0  0  0  0
   -4.9604    0.7074    2.2222 H   0  0  0  0  0  0  0  0  0  0  0  0
   -3.8897   -0.6248    1.8080 H   0  0  0  0  0  0  0  0  0  0  0  0
   -2.7234    1.5254    1.7974 H   0  0  0  0  0  0  0  0  0  0  0  0
   -3.7838    2.1565    0.5220 H   0  0  0  0  0  0  0  0  0  0  0  0
   -1.2660    2.8787    0.7232 H   0  0  0  0  0  0  0  0  0  0  0  0
    1.1035    3.4175    0.5448 H   0  0  0  0  0  0  0  0  0  0  0  0
    3.0639    1.3843   -2.6257 H   0  0  0  0  0  0  0  0  0  0  0  0
    6.5954    2.2961    0.1459 H   0  0  0  0  0  0  0  0  0  0  0  0
    8.0058    0.6973    1.2874 H   0  0  0  0  0  0  0  0  0  0  0  0
    8.9228   -2.5900   -0.0636 H   0  0  0  0  0  0  0  0  0  0  0  0
    9.3005   -0.7342    2.2209 H   0  0  0  0  0  0  0  0  0  0  0  0
   10.0750   -2.2678    1.9251 H   0  0  0  0  0  0  0  0  0  0  0  0
   10.4604    0.2001    0.1594 H   0  0  0  0  0  0  0  0  0  0  0  0
   12.3526   -1.0304    2.2034 H   0  0  0  0  0  0  0  0  0  0  0  0
   11.4361    0.4464    2.4559 H   0  0  0  0  0  0  0  0  0  0  0  0
   13.9211    0.5367    1.6262 H   0  0  0  0  0  0  0  0  0  0  0  0
   12.7436    1.6992    1.0301 H   0  0  0  0  0  0  0  0  0  0  0  0
   15.4651   -0.0711   -0.2109 H   0  0  0  0  0  0  0  0  0  0  0  0
   14.9910    1.5742   -0.6871 H   0  0  0  0  0  0  0  0  0  0  0  0
   14.9507    0.2822   -1.8762 H   0  0  0  0  0  0  0  0  0  0  0  0
   12.7390    1.9021   -1.2792 H   0  0  0  0  0  0  0  0  0  0  0  0
   13.1988   -1.5660   -1.6910 H   0  0  0  0  0  0  0  0  0  0  0  0
   13.6246   -1.8811   -0.0121 H   0  0  0  0  0  0  0  0  0  0  0  0
   11.4591   -2.6520   -0.0489 H   0  0  0  0  0  0  0  0  0  0  0  0
   10.9360   -1.5350   -1.2945 H   0  0  0  0  0  0  0  0  0  0  0  0
    5.8616   -1.4574   -3.5561 H   0  0  0  0  0  0  0  0  0  0  0  0
    3.3495   -2.6364   -2.2746 H   0  0  0  0  0  0  0  0  0  0  0  0
    6.2311   -3.8075    1.3797 H   0  0  0  0  0  0  0  0  0  0  0  0
    6.0872   -2.5853    3.5864 H   0  0  0  0  0  0  0  0  0  0  0  0
    4.1276   -0.6950    3.3091 H   0  0  0  0  0  0  0  0  0  0  0  0
   -0.5486   -0.9156   -1.1918 H   0  0  0  0  0  0  0  0  0  0  0  0
   -2.6494   -0.4494   -1.9418 H   0  0  0  0  0  0  0  0  0  0  0  0
   -2.9359   -1.4042   -0.4693 H   0  0  0  0  0  0  0  0  0  0  0  0
   -5.0224   -0.9012   -1.7929 H   0  0  0  0  0  0  0  0  0  0  0  0
   -4.7118    0.8211   -1.6074 H   0  0  0  0  0  0  0  0  0  0  0  0
   -6.9884    1.0199    1.1662 H   0  0  0  0  0  0  0  0  0  0  0  0
   -6.8017    1.3593   -0.5616 H   0  0  0  0  0  0  0  0  0  0  0  0
  1  2  1  0
  2  3  1  0
  2  4  1  0
  4  5  2  0
  5  6  1  0
  6  7  2  0
  7  8  1  0
  8  9  2  0
  9 10  1  0
 10 11  1  0
 11 12  1  0
 12 13  1  0
 12 14  1  0
 14 15  1  0
 15 16  1  0
 16 17  1  0
 17 18  1  0
 18 19  1  0
 19 20  1  0
 20 21  1  0
 21 22  1  0
 22 23  1  0
 23 24  2  0
 24 25  1  0
 25 26  2  0
 26 27  1  0
 27 28  2  0
 27 29  1  0
 29 30  1  0
 30 31  2  0
 30 32  2  0
 30 33  1  0
 33 34  2  0
 34 35  1  0
 35 36  2  0
 36 37  1  0
 37 38  1  0
 38 39  1  0
 39 40  1  0
 40 41  1  0
 41 42  1  0
 42 43  1  0
 42 44  1  6
 42 45  1  0
 45 46  1  0
 36 47  1  0
 47 48  1  0
 48 49  2  0
 48 50  1  0
 47 51  2  0
 51 52  1  0
 26 53  1  0
 53 54  1  0
 54 55  1  0
 55 56  2  0
 56 57  1  0
 57 58  2  0
 58 59  1  0
 59 60  1  0
 60 61  2  0
 61 62  1  0
 62 63  2  0
 53 64  2  0
 22 65  1  0
 65 66  1  0
 19 67  1  0
  9  4  1  0
 16 10  1  0
 67 17  1  0
 66 19  1  0
 64 23  1  0
 51 33  1  0
 63 55  1  0
 46 39  1  0
 62 58  1  0
  1 68  1  0
  1 69  1  0
  1 70  1  0
  2 71  1  0
  3 72  1  0
  3 73  1  0
  3 74  1  0
  5 75  1  0
  6 76  1  0
  7 77  1  0
  8 78  1  0
 10 79  1  6
 11 80  1  0
 11 81  1  0
 13 82  1  0
 13 83  1  0
 13 84  1  0
 14 85  1  0
 14 86  1  0
 15 87  1  0
 15 88  1  0
 17 89  1  0
 18 90  1  0
 18 91  1  0
 20 92  1  0
 20 93  1  0
 21 94  1  0
 21 95  1  0
 24 96  1  0
 25 97  1  0
 29 98  1  0
 34 99  1  0
 35100  1  0
 37101  1  0
 38102  1  0
 38103  1  0
 39104  1  6
 40105  1  0
 40106  1  0
 41107  1  0
 41108  1  0
 43109  1  0
 43110  1  0
 43111  1  0
 44112  1  0
 45113  1  0
 45114  1  0
 46115  1  0
 46116  1  0
 52117  1  0
 56118  1  0
 59119  1  0
 60120  1  0
 61121  1  0
 64122  1  0
 65123  1  0
 65124  1  0
 66125  1  0
 66126  1  0
 67127  1  0
 67128  1  0
M  CHG  2  48   1  50  -1
M  END
$$$$

     RDKit          3D

128136  0  0  0  0  0  0  0  0999 V2000
   -5.0199    4.1388   -0.3422 C   0  0  0  0  0  0  0  0  0  0  0  0
   -6.4658    4.1932   -0.8415 C   0  0  0  0  0  0  0  0  0  0  0  0
   -6.7400    5.5382   -1.5292 C   0  0  0  0  0  0  0  0  0  0  0  0
   -7.4304    3.8626    0.2957 C   0  0  0  0  0  0  0  0  0  0  0  0
   -7.8623    4.8904    1.1599 C   0  0  0  0  0  0  0  0  0  0  0  0
   -8.7529    4.6431    2.2050 C   0  0  0  0  0  0  0  0  0  0  0  0
   -9.2300    3.3587    2.4180 C   0  0  0  0  0  0  0  0  0  0  0  0
   -8.8022    2.3204    1.5948 C   0  0  0  0  0  0  0  0  0  0  0  0
   -7.8873    2.5407    0.5406 C   0  0  0  0  0  0  0  0  0  0  0  0
   -7.4540    1.3397   -0.3134 C   0  0  2  0  0  0  0  0  0  0  0  0
   -8.5199    1.1073   -1.4291 C   0  0  0  0  0  0  0  0  0  0  0  0
   -8.1216    0.0838   -2.4214 N   0  0  0  0  0  0  0  0  0  0  0  0
   -9.2963   -0.4556   -3.1000 C   0  0  0  0  0  0  0  0  0  0  0  0
   -7.3020   -0.9739   -1.8049 C   0  0  0  0  0  0  0  0  0  0  0  0
   -7.4687   -1.1194   -0.2736 C   0  0  0  0  0  0  0  0  0  0  0  0
   -7.2299    0.1087    0.5050 N   0  0  0  0  0  0  0  0  0  0  0  0
   -5.9635    0.2225    1.2448 C   0  0  0  0  0  0  0  0  0  0  0  0
   -4.7189   -0.3527    0.5459 C   0  0  0  0  0  0  0  0  0  0  0  0
   -4.3155   -0.9905    1.9258 C   0  0  0  0  0  0  0  0  0  0  0  0
   -3.8242   -2.4473    1.8485 C   0  0  0  0  0  0  0  0  0  0  0  0
   -2.3090   -2.5485    2.0522 C   0  0  0  0  0  0  0  0  0  0  0  0
   -1.6559   -1.3717    1.4740 N   0  0  0  0  0  0  0  0  0  0  0  0
   -0.4815   -1.5148    0.7446 C   0  0  0  0  0  0  0  0  0  0  0  0
    0.5603   -0.5763    0.7962 C   0  0  0  0  0  0  0  0  0  0  0  0
    1.7337   -0.7249    0.0432 C   0  0  0  0  0  0  0  0  0  0  0  0
    1.9046   -1.8270   -0.8000 C   0  0  0  0  0  0  0  0  0  0  0  0
    3.1948   -1.9285   -1.5250 C   0  0  0  0  0  0  0  0  0  0  0  0
    3.7730   -0.9238   -1.9124 O   0  0  0  0  0  0  0  0  0  0  0  0
    3.7160   -3.2176   -1.6547 N   0  0  0  0  0  0  0  0  0  0  0  0
    5.1787   -3.5871   -2.3434 S   0  0  0  0  0  0  0  0  0  0  0  0
    5.1192   -3.2112   -3.7413 O   0  0  0  0  0  0  0  0  0  0  0  0
    5.5071   -4.9475   -1.9711 O   0  0  0  0  0  0  0  0  0  0  0  0
    6.3406   -2.5232   -1.5259 C   0  0  0  0  0  0  0  0  0  0  0  0
    7.1468   -1.6927   -2.3060 C   0  0  0  0  0  0  0  0  0  0  0  0
    8.0662   -0.8310   -1.7001 C   0  0  0  0  0  0  0  0  0  0  0  0
    8.1895   -0.7399   -0.3042 C   0  0  0  0  0  0  0  0  0  0  0  0
    9.1613    0.0878    0.2783 N   0  0  0  0  0  0  0  0  0  0  0  0
    9.6744    1.2862   -0.3893 C   0  0  0  0  0  0  0  0  0  0  0  0
    8.6078    2.3934   -0.5016 C   0  0  1  0  0  0  0  0  0  0  0  0
    8.1120    2.8576    0.8825 C   0  0  0  0  0  0  0  0  0  0  0  0
    7.7426    4.3436    0.9526 C   0  0  0  0  0  0  0  0  0  0  0  0
    7.1381    4.8820   -0.3485 C   0  0  2  0  0  0  0  0  0  0  0  0
    6.8163    6.3720   -0.2091 C   0  0  0  0  0  0  0  0  0  0  0  0
    5.8823    4.2332   -0.5763 O   0  0  0  0  0  0  0  0  0  0  0  0
    8.0661    4.6433   -1.5572 C   0  0  0  0  0  0  0  0  0  0  0  0
    9.1403    3.5749   -1.3164 C   0  0  0  0  0  0  0  0  0  0  0  0
    7.3841   -1.6267    0.4617 C   0  0  0  0  0  0  0  0  0  0  0  0
    7.4766   -1.6084    1.9227 N   0  0  0  0  0  0  0  0  0  0  0  0
    7.7543   -0.5382    2.4856 O   0  0  0  0  0  0  0  0  0  0  0  0
    7.2370   -2.6726    2.5186 O   0  0  0  0  0  0  0  0  0  0  0  0
    6.4591   -2.5132   -0.1365 C   0  0  0  0  0  0  0  0  0  0  0  0
    5.6479   -3.3483    0.5893 O   0  0  0  0  0  0  0  0  0  0  0  0
    0.8713   -2.7600   -0.8935 C   0  0  0  0  0  0  0  0  0  0  0  0
    0.8975   -3.7850   -1.8138 O   0  0  0  0  0  0  0  0  0  0  0  0
    1.1320   -5.0440   -1.2780 C   0  0  0  0  0  0  0  0  0  0  0  0
    0.4626   -6.1213   -1.8516 C   0  0  0  0  0  0  0  0  0  0  0  0
    0.6375   -7.4132   -1.4730 N   0  0  0  0  0  0  0  0  0  0  0  0
    1.5677   -7.5029   -0.4986 C   0  0  0  0  0  0  0  0  0  0  0  0
    1.9965   -8.6579    0.0947 N   0  0  0  0  0  0  0  0  0  0  0  0
    2.9532   -8.3653    1.0380 C   0  0  0  0  0  0  0  0  0  0  0  0
    3.1430   -6.9966    1.0437 C   0  0  0  0  0  0  0  0  0  0  0  0
    2.2700   -6.4461    0.0779 C   0  0  0  0  0  0  0  0  0  0  0  0
    2.0746   -5.1550   -0.3040 N   0  0  0  0  0  0  0  0  0  0  0  0
   -0.3054   -2.5904   -0.1418 C   0  0  0  0  0  0  0  0  0  0  0  0
   -1.9717   -0.0970    2.1369 C   0  0  0  0  0  0  0  0  0  0  0  0
   -3.3694   -0.1283    2.7723 C   0  0  0  0  0  0  0  0  0  0  0  0
   -5.8264   -0.8734    2.3196 C   0  0  0  0  0  0  0  0  0  0  0  0
   -4.7832    3.1599    0.0884 H   0  0  0  0  0  0  0  0  0  0  0  0
   -4.3189    4.3193   -1.1642 H   0  0  0  0  0  0  0  0  0  0  0  0
   -4.8339    4.8934    0.4306 H   0  0  0  0  0  0  0  0  0  0  0  0
   -6.5862    3.4508   -1.6372 H   0  0  0  0  0  0  0  0  0  0  0  0
   -6.5054    6.3916   -0.8847 H   0  0  0  0  0  0  0  0  0  0  0  0
   -7.7892    5.6172   -1.8345 H   0  0  0  0  0  0  0  0  0  0  0  0
   -6.1224    5.6362   -2.4292 H   0  0  0  0  0  0  0  0  0  0  0  0
   -7.5054    5.9095    1.0332 H   0  0  0  0  0  0  0  0  0  0  0  0
   -9.0718    5.4569    2.8506 H   0  0  0  0  0  0  0  0  0  0  0  0
   -9.9260    3.1596    3.2278 H   0  0  0  0  0  0  0  0  0  0  0  0
   -9.1777    1.3162    1.7862 H   0  0  0  0  0  0  0  0  0  0  0  0
   -6.5021    1.5643   -0.8083 H   0  0  0  0  0  0  0  0  0  0  0  0
   -8.7069    2.0449   -1.9680 H   0  0  0  0  0  0  0  0  0  0  0  0
   -9.4708    0.8290   -0.9512 H   0  0  0  0  0  0  0  0  0  0  0  0
   -9.8745    0.3491   -3.5678 H   0  0  0  0  0  0  0  0  0  0  0  0
   -8.9956   -1.1344   -3.9058 H   0  0  0  0  0  0  0  0  0  0  0  0
   -9.9547   -1.0029   -2.4159 H   0  0  0  0  0  0  0  0  0  0  0  0
   -7.4823   -1.9456   -2.2819 H   0  0  0  0  0  0  0  0  0  0  0  0
   -6.2546   -0.7343   -2.0241 H   0  0  0  0  0  0  0  0  0  0  0  0
   -6.8701   -1.9691    0.0695 H   0  0  0  0  0  0  0  0  0  0  0  0
   -8.5070   -1.4197   -0.0784 H   0  0  0  0  0  0  0  0  0  0  0  0
   -5.7821    1.2157    1.6776 H   0  0  0  0  0  0  0  0  0  0  0  0
   -4.0377    0.4069    0.1484 H   0  0  0  0  0  0  0  0  0  0  0  0
   -4.8696   -1.0913   -0.2455 H   0  0  0  0  0  0  0  0  0  0  0  0
   -4.3116   -3.0581    2.6186 H   0  0  0  0  0  0  0  0  0  0  0  0
   -4.0962   -2.8924    0.8840 H   0  0  0  0  0  0  0  0  0  0  0  0
   -1.9587   -3.5061    1.6536 H   0  0  0  0  0  0  0  0  0  0  0  0
   -2.0809   -2.5823    3.1261 H   0  0  0  0  0  0  0  0  0  0  0  0
    0.4928    0.2967    1.4397 H   0  0  0  0  0  0  0  0  0  0  0  0
    2.5148    0.0289    0.1282 H   0  0  0  0  0  0  0  0  0  0  0  0
    3.3717   -3.9671   -1.0482 H   0  0  0  0  0  0  0  0  0  0  0  0
    7.0698   -1.7063   -3.3926 H   0  0  0  0  0  0  0  0  0  0  0  0
    8.6849   -0.2287   -2.3602 H   0  0  0  0  0  0  0  0  0  0  0  0
    8.9758    0.2689    1.2717 H   0  0  0  0  0  0  0  0  0  0  0  0
   10.5209    1.6579    0.2018 H   0  0  0  0  0  0  0  0  0  0  0  0
   10.0936    1.0368   -1.3702 H   0  0  0  0  0  0  0  0  0  0  0  0
    7.7471    1.9868   -1.0477 H   0  0  0  0  0  0  0  0  0  0  0  0
    7.2373    2.2544    1.1583 H   0  0  0  0  0  0  0  0  0  0  0  0
    8.8657    2.6623    1.6556 H   0  0  0  0  0  0  0  0  0  0  0  0
    7.0432    4.4820    1.7868 H   0  0  0  0  0  0  0  0  0  0  0  0
    8.6449    4.9185    1.1997 H   0  0  0  0  0  0  0  0  0  0  0  0
    6.3426    6.7545   -1.1206 H   0  0  0  0  0  0  0  0  0  0  0  0
    7.7161    6.9635   -0.0109 H   0  0  0  0  0  0  0  0  0  0  0  0
    6.1036    6.5435    0.6059 H   0  0  0  0  0  0  0  0  0  0  0  0
    6.0399    3.2988   -0.7890 H   0  0  0  0  0  0  0  0  0  0  0  0
    8.5867    5.5679   -1.8369 H   0  0  0  0  0  0  0  0  0  0  0  0
    7.4673    4.3497   -2.4290 H   0  0  0  0  0  0  0  0  0  0  0  0
    9.9916    4.0289   -0.7923 H   0  0  0  0  0  0  0  0  0  0  0  0
    9.5216    3.2326   -2.2861 H   0  0  0  0  0  0  0  0  0  0  0  0
    6.0316   -3.5086    1.4790 H   0  0  0  0  0  0  0  0  0  0  0  0
   -0.2508   -5.9662   -2.6545 H   0  0  0  0  0  0  0  0  0  0  0  0
    1.6544   -9.5765   -0.1485 H   0  0  0  0  0  0  0  0  0  0  0  0
    3.4203   -9.1537    1.6136 H   0  0  0  0  0  0  0  0  0  0  0  0
    3.8378   -6.4521    1.6680 H   0  0  0  0  0  0  0  0  0  0  0  0
   -1.1167   -3.2966   -0.2976 H   0  0  0  0  0  0  0  0  0  0  0  0
   -1.2382    0.1347    2.9184 H   0  0  0  0  0  0  0  0  0  0  0  0
   -1.9442    0.7106    1.3948 H   0  0  0  0  0  0  0  0  0  0  0  0
   -3.7368    0.8978    2.8897 H   0  0  0  0  0  0  0  0  0  0  0  0
   -3.3044   -0.5465    3.7853 H   0  0  0  0  0  0  0  0  0  0  0  0
   -6.0210   -0.5366    3.3438 H   0  0  0  0  0  0  0  0  0  0  0  0
   -6.4004   -1.7939    2.1663 H   0  0  0  0  0  0  0  0  0  0  0  0
  1  2  1  0
  2  3  1  0
  2  4  1  0
  4  5  2  0
  5  6  1  0
  6  7  2  0
  7  8  1  0
  8  9  2  0
  9 10  1  0
 10 11  1  0
 11 12  1  0
 12 13  1  0
 12 14  1  0
 14 15  1  0
 15 16  1  0
 16 17  1  0
 17 18  1  0
 18 19  1  0
 19 20  1  0
 20 21  1  0
 21 22  1  0
 22 23  1  0
 23 24  2  0
 24 25  1  0
 25 26  2  0
 26 27  1  0
 27 28  2  0
 27 29  1  0
 29 30  1  0
 30 31  2  0
 30 32  2  0
 30 33  1  0
 33 34  2  0
 34 35  1  0
 35 36  2  0
 36 37  1  0
 37 38  1  0
 38 39  1  0
 39 40  1  0
 40 41  1  0
 41 42  1  0
 42 43  1  0
 42 44  1  6
 42 45  1  0
 45 46  1  0
 36 47  1  0
 47 48  1  0
 48 49  2  0
 48 50  1  0
 47 51  2  0
 51 52  1  0
 26 53  1  0
 53 54  1  0
 54 55  1  0
 55 56  2  0
 56 57  1  0
 57 58  2  0
 58 59  1  0
 59 60  1  0
 60 61  2  0
 61 62  1  0
 62 63  2  0
 53 64  2  0
 22 65  1  0
 65 66  1  0
 19 67  1  0
  9  4  1  0
 16 10  1  0
 67 17  1  0
 66 19  1  0
 64 23  1  0
 51 33  1  0
 63 55  1  0
 46 39  1  0
 62 58  1  0
  1 68  1  0
  1 69  1  0
  1 70  1  0
  2 71  1  0
  3 72  1  0
  3 73  1  0
  3 74  1  0
  5 75  1  0
  6 76  1  0
  7 77  1  0
  8 78  1  0
 10 79  1  6
 11 80  1  0
 11 81  1  0
 13 82  1  0
 13 83  1  0
 13 84  1  0
 14 85  1  0
 14 86  1  0
 15 87  1  0
 15 88  1  0
 17 89  1  0
 18 90  1  0
 18 91  1  0
 20 92  1  0
 20 93  1  0
 21 94  1  0
 21 95  1  0
 24 96  1  0
 25 97  1  0
 29 98  1  0
 34 99  1  0
 35100  1  0
 37101  1  0
 38102  1  0
 38103  1  0
 39104  1  6
 40105  1  0
 40106  1  0
 41107  1  0
 41108  1  0
 43109  1  0
 43110  1  0
 43111  1  0
 44112  1  0
 45113  1  0
 45114  1  0
 46115  1  0
 46116  1  0
 52117  1  0
 56118  1  0
 59119  1  0
 60120  1  0
 61121  1  0
 64122  1  0
 65123  1  0
 65124  1  0
 66125  1  0
 66126  1  0
 67127  1  0
 67128  1  0
M  CHG  2  48   1  50  -1
M  END
$$$$
