
     RDKit          3D

130139  0  0  0  0  0  0  0  0999 V2000
   -9.4256    5.2099    1.1323 C   0  0  0  0  0  0  0  0  0  0  0  0
   -9.4970    5.6060   -0.2761 N   0  0  0  0  0  0  0  0  0  0  0  0
  -10.8889    5.8724   -0.6472 C   0  0  0  0  0  0  0  0  0  0  0  0
   -8.9258    4.5745   -1.1694 C   0  0  0  0  0  0  0  0  0  0  0  0
   -7.4260    4.2828   -0.9469 C   0  0  0  0  0  0  0  0  0  0  0  0
   -7.1945    3.3789    0.1383 O   0  0  0  0  0  0  0  0  0  0  0  0
   -7.3319    2.0066   -0.2131 C   0  0  0  0  0  0  0  0  0  0  0  0
   -7.4015    1.1693    1.0526 C   0  0  0  0  0  0  0  0  0  0  0  0
   -6.9268   -0.2269    0.6205 C   0  0  0  0  0  0  0  0  0  0  0  0
   -8.1270   -1.1715    0.4806 C   0  0  0  0  0  0  0  0  0  0  0  0
   -8.6943   -1.4217   -0.7879 C   0  0  0  0  0  0  0  0  0  0  0  0
   -9.8168   -2.2335   -0.9348 C   0  0  0  0  0  0  0  0  0  0  0  0
  -10.4052   -2.8007    0.1848 C   0  0  0  0  0  0  0  0  0  0  0  0
   -9.8630   -2.5609    1.4474 C   0  0  0  0  0  0  0  0  0  0  0  0
   -8.7141   -1.7632    1.6333 C   0  0  0  0  0  0  0  0  0  0  0  0
   -8.1832   -1.5270    3.0374 C   0  0  0  0  0  0  0  0  0  0  0  0
   -6.8828   -2.1707    3.4652 C   0  0  0  0  0  0  0  0  0  0  0  0
   -8.1694   -2.6363    4.0679 C   0  0  0  0  0  0  0  0  0  0  0  0
   -6.1991   -0.0114   -0.6506 N   0  0  0  0  0  0  0  0  0  0  0  0
   -4.9180   -0.6800   -0.8758 C   0  0  0  0  0  0  0  0  0  0  0  0
   -3.8590   -0.4405    0.2188 C   0  0  0  0  0  0  0  0  0  0  0  0
   -3.4682   -1.9559    0.0744 C   0  0  0  0  0  0  0  0  0  0  0  0
   -2.3505   -2.2236   -0.9596 C   0  0  0  0  0  0  0  0  0  0  0  0
   -1.1244   -2.8589   -0.3041 C   0  0  0  0  0  0  0  0  0  0  0  0
   -0.8103   -2.1715    0.9477 N   0  0  0  0  0  0  0  0  0  0  0  0
    0.2565   -1.2951    1.0784 C   0  0  0  0  0  0  0  0  0  0  0  0
    0.7539   -0.9427    2.3450 C   0  0  0  0  0  0  0  0  0  0  0  0
    1.8312   -0.0607    2.5080 C   0  0  0  0  0  0  0  0  0  0  0  0
    2.4566    0.5060    1.3953 C   0  0  0  0  0  0  0  0  0  0  0  0
    3.5877    1.4383    1.6416 C   0  0  0  0  0  0  0  0  0  0  0  0
    4.2589    1.3446    2.6572 O   0  0  0  0  0  0  0  0  0  0  0  0
    3.8330    2.3836    0.6424 N   0  0  0  0  0  0  0  0  0  0  0  0
    5.1214    3.4283    0.6056 S   0  0  0  0  0  0  0  0  0  0  0  0
    5.1259    4.2364    1.8022 O   0  0  0  0  0  0  0  0  0  0  0  0
    5.0899    4.0363   -0.7087 O   0  0  0  0  0  0  0  0  0  0  0  0
    6.5121    2.3264    0.6403 C   0  0  0  0  0  0  0  0  0  0  0  0
    6.9324    1.7127   -0.5381 C   0  0  0  0  0  0  0  0  0  0  0  0
    8.0093    0.8177   -0.5135 C   0  0  0  0  0  0  0  0  0  0  0  0
    8.6849    0.4963    0.6772 C   0  0  0  0  0  0  0  0  0  0  0  0
    9.8084   -0.3451    0.6776 N   0  0  0  0  0  0  0  0  0  0  0  0
   10.0369   -1.3267   -0.3841 C   0  0  0  0  0  0  0  0  0  0  0  0
   10.9993   -0.7621   -1.4342 C   0  0  0  0  0  0  0  0  0  0  0  0
   10.9851   -1.6192   -2.7052 C   0  0  0  0  0  0  0  0  0  0  0  0
   12.0025   -1.0892   -3.7077 C   0  0  0  0  0  0  0  0  0  0  0  0
   13.3107   -1.0817   -3.1459 O   0  0  0  0  0  0  0  0  0  0  0  0
   13.4110   -0.2580   -1.9779 C   0  0  0  0  0  0  0  0  0  0  0  0
   12.4259   -0.6751   -0.8870 C   0  0  0  0  0  0  0  0  0  0  0  0
   12.7945   -1.9089   -0.4301 F   0  0  0  0  0  0  0  0  0  0  0  0
    8.2656    1.1910    1.8403 C   0  0  0  0  0  0  0  0  0  0  0  0
    8.9397    0.9723    3.1199 N   0  0  0  0  0  0  0  0  0  0  0  0
    9.3224   -0.1797    3.3807 O   0  0  0  0  0  0  0  0  0  0  0  0
    9.0795    1.9508    3.8674 O   0  0  0  0  0  0  0  0  0  0  0  0
    7.1893    2.0943    1.8341 C   0  0  0  0  0  0  0  0  0  0  0  0
    1.9987    0.1457    0.1251 C   0  0  0  0  0  0  0  0  0  0  0  0
    2.5630    0.6508   -1.0230 O   0  0  0  0  0  0  0  0  0  0  0  0
    3.5794   -0.0708   -1.6145 C   0  0  0  0  0  0  0  0  0  0  0  0
    4.0227    0.4092   -2.8474 C   0  0  0  0  0  0  0  0  0  0  0  0
    5.0269   -0.1103   -3.5952 N   0  0  0  0  0  0  0  0  0  0  0  0
    5.5856   -1.1934   -3.0276 C   0  0  0  0  0  0  0  0  0  0  0  0
    6.6029   -1.9201   -3.5826 N   0  0  0  0  0  0  0  0  0  0  0  0
    6.9481   -2.9494   -2.7441 C   0  0  0  0  0  0  0  0  0  0  0  0
    6.1283   -2.8845   -1.6360 C   0  0  0  0  0  0  0  0  0  0  0  0
    5.2539   -1.7774   -1.8104 C   0  0  0  0  0  0  0  0  0  0  0  0
    4.2085   -1.1951   -1.0708 C   0  0  0  0  0  0  0  0  0  0  0  0
    0.9060   -0.7244   -0.0252 C   0  0  0  0  0  0  0  0  0  0  0  0
   -1.8583   -2.1882    1.9814 C   0  0  0  0  0  0  0  0  0  0  0  0
   -3.2030   -2.6553    1.4120 C   0  0  0  0  0  0  0  0  0  0  0  0
   -4.9165   -2.1721   -0.4882 C   0  0  0  0  0  0  0  0  0  0  0  0
   -6.0893    1.4323   -0.8822 C   0  0  0  0  0  0  0  0  0  0  0  0
   -8.3887    5.1720    1.4797 H   0  0  0  0  0  0  0  0  0  0  0  0
   -9.8970    4.2374    1.3137 H   0  0  0  0  0  0  0  0  0  0  0  0
   -9.9228    5.9531    1.7666 H   0  0  0  0  0  0  0  0  0  0  0  0
  -11.3054    6.6762   -0.0299 H   0  0  0  0  0  0  0  0  0  0  0  0
  -11.5240    4.9862   -0.5349 H   0  0  0  0  0  0  0  0  0  0  0  0
  -10.9528    6.2139   -1.6864 H   0  0  0  0  0  0  0  0  0  0  0  0
   -9.0211    4.9425   -2.1989 H   0  0  0  0  0  0  0  0  0  0  0  0
   -9.5103    3.6501   -1.0954 H   0  0  0  0  0  0  0  0  0  0  0  0
   -6.9815    3.8842   -1.8661 H   0  0  0  0  0  0  0  0  0  0  0  0
   -6.8947    5.2141   -0.7207 H   0  0  0  0  0  0  0  0  0  0  0  0
   -8.2286    1.8352   -0.8211 H   0  0  0  0  0  0  0  0  0  0  0  0
   -6.7152    1.5805    1.8056 H   0  0  0  0  0  0  0  0  0  0  0  0
   -8.4059    1.2006    1.4887 H   0  0  0  0  0  0  0  0  0  0  0  0
   -6.2667   -0.6171    1.3972 H   0  0  0  0  0  0  0  0  0  0  0  0
   -8.2613   -0.9779   -1.6819 H   0  0  0  0  0  0  0  0  0  0  0  0
  -10.2327   -2.4131   -1.9223 H   0  0  0  0  0  0  0  0  0  0  0  0
  -11.2875   -3.4261    0.0815 H   0  0  0  0  0  0  0  0  0  0  0  0
  -10.3528   -3.0050    2.3118 H   0  0  0  0  0  0  0  0  0  0  0  0
   -8.3839   -0.5340    3.4369 H   0  0  0  0  0  0  0  0  0  0  0  0
   -6.3841   -2.8446    2.7779 H   0  0  0  0  0  0  0  0  0  0  0  0
   -6.2106   -1.5879    4.0839 H   0  0  0  0  0  0  0  0  0  0  0  0
   -8.3759   -2.3686    5.0981 H   0  0  0  0  0  0  0  0  0  0  0  0
   -8.5110   -3.6286    3.7970 H   0  0  0  0  0  0  0  0  0  0  0  0
   -4.5247   -0.5199   -1.8893 H   0  0  0  0  0  0  0  0  0  0  0  0
   -3.0772    0.2798   -0.0454 H   0  0  0  0  0  0  0  0  0  0  0  0
   -4.2228   -0.1672    1.2150 H   0  0  0  0  0  0  0  0  0  0  0  0
   -2.0564   -1.2912   -1.4564 H   0  0  0  0  0  0  0  0  0  0  0  0
   -2.7052   -2.8984   -1.7477 H   0  0  0  0  0  0  0  0  0  0  0  0
   -0.2836   -2.8960   -1.0050 H   0  0  0  0  0  0  0  0  0  0  0  0
   -1.3363   -3.9117   -0.0750 H   0  0  0  0  0  0  0  0  0  0  0  0
    0.3168   -1.3731    3.2437 H   0  0  0  0  0  0  0  0  0  0  0  0
    2.1731    0.1759    3.5149 H   0  0  0  0  0  0  0  0  0  0  0  0
    3.2794    2.4072   -0.2086 H   0  0  0  0  0  0  0  0  0  0  0  0
    6.4350    1.9189   -1.4842 H   0  0  0  0  0  0  0  0  0  0  0  0
    8.3023    0.3761   -1.4622 H   0  0  0  0  0  0  0  0  0  0  0  0
    9.9680   -0.7598    1.6053 H   0  0  0  0  0  0  0  0  0  0  0  0
    9.0908   -1.6485   -0.8337 H   0  0  0  0  0  0  0  0  0  0  0  0
   10.4645   -2.2303    0.0677 H   0  0  0  0  0  0  0  0  0  0  0  0
   10.6845    0.2523   -1.7135 H   0  0  0  0  0  0  0  0  0  0  0  0
    9.9867   -1.6185   -3.1562 H   0  0  0  0  0  0  0  0  0  0  0  0
   11.2345   -2.6566   -2.4492 H   0  0  0  0  0  0  0  0  0  0  0  0
   11.7439   -0.0775   -4.0418 H   0  0  0  0  0  0  0  0  0  0  0  0
   12.0228   -1.7338   -4.5921 H   0  0  0  0  0  0  0  0  0  0  0  0
   14.4359   -0.3548   -1.6066 H   0  0  0  0  0  0  0  0  0  0  0  0
   13.2521    0.7863   -2.2700 H   0  0  0  0  0  0  0  0  0  0  0  0
   12.4898    0.0159   -0.0404 H   0  0  0  0  0  0  0  0  0  0  0  0
    6.8693    2.5893    2.7506 H   0  0  0  0  0  0  0  0  0  0  0  0
    3.5529    1.2860   -3.2900 H   0  0  0  0  0  0  0  0  0  0  0  0
    7.0108   -1.7134   -4.4829 H   0  0  0  0  0  0  0  0  0  0  0  0
    7.7363   -3.6413   -3.0108 H   0  0  0  0  0  0  0  0  0  0  0  0
    6.1508   -3.5661   -0.7950 H   0  0  0  0  0  0  0  0  0  0  0  0
    3.9262   -1.6287   -0.1189 H   0  0  0  0  0  0  0  0  0  0  0  0
    0.5639   -0.9310   -1.0352 H   0  0  0  0  0  0  0  0  0  0  0  0
   -1.9995   -1.1795    2.3909 H   0  0  0  0  0  0  0  0  0  0  0  0
   -1.5627   -2.8475    2.8056 H   0  0  0  0  0  0  0  0  0  0  0  0
   -3.1997   -3.7435    1.2720 H   0  0  0  0  0  0  0  0  0  0  0  0
   -3.9945   -2.4416    2.1393 H   0  0  0  0  0  0  0  0  0  0  0  0
   -5.0077   -2.8654   -1.3308 H   0  0  0  0  0  0  0  0  0  0  0  0
   -5.6272   -2.4994    0.2770 H   0  0  0  0  0  0  0  0  0  0  0  0
   -6.0679    1.6631   -1.9524 H   0  0  0  0  0  0  0  0  0  0  0  0
   -5.1876    1.8667   -0.4315 H   0  0  0  0  0  0  0  0  0  0  0  0
  1  2  1  0
  2  3  1  0
  2  4  1  0
  4  5  1  0
  5  6  1  0
  6  7  1  0
  7  8  1  0
  8  9  1  0
  9 10  1  0
 10 11  2  0
 11 12  1  0
 12 13  2  0
 13 14  1  0
 14 15  2  0
 15 16  1  0
 16 17  1  0
 17 18  1  0
  9 19  1  0
 19 20  1  0
 20 21  1  0
 21 22  1  0
 22 23  1  0
 23 24  1  0
 24 25  1  0
 25 26  1  0
 26 27  2  0
 27 28  1  0
 28 29  2  0
 29 30  1  0
 30 31  2  0
 30 32  1  0
 32 33  1  0
 33 34  2  0
 33 35  2  0
 33 36  1  0
 36 37  2  0
 37 38  1  0
 38 39  2  0
 39 40  1  0
 40 41  1  0
 41 42  1  0
 42 43  1  0
 43 44  1  0
 44 45  1  0
 45 46  1  0
 46 47  1  0
 47 48  1  0
 39 49  1  0
 49 50  1  0
 50 51  2  0
 50 52  1  0
 49 53  2  0
 29 54  1  0
 54 55  1  0
 55 56  1  0
 56 57  2  0
 57 58  1  0
 58 59  2  0
 59 60  1  0
 60 61  1  0
 61 62  2  0
 62 63  1  0
 63 64  2  0
 54 65  2  0
 25 66  1  0
 66 67  1  0
 22 68  1  0
 19 69  1  0
 69  7  1  0
 15 10  1  0
 18 16  1  0
 68 20  1  0
 67 22  1  0
 65 26  1  0
 53 36  1  0
 64 56  1  0
 47 42  1  0
 63 59  1  0
  1 70  1  0
  1 71  1  0
  1 72  1  0
  3 73  1  0
  3 74  1  0
  3 75  1  0
  4 76  1  0
  4 77  1  0
  5 78  1  0
  5 79  1  0
  7 80  1  0
  8 81  1  0
  8 82  1  0
  9 83  1  0
 11 84  1  0
 12 85  1  0
 13 86  1  0
 14 87  1  0
 16 88  1  0
 17 89  1  0
 17 90  1  0
 18 91  1  0
 18 92  1  0
 20 93  1  0
 21 94  1  0
 21 95  1  0
 23 96  1  0
 23 97  1  0
 24 98  1  0
 24 99  1  0
 27100  1  0
 28101  1  0
 32102  1  0
 37103  1  0
 38104  1  0
 40105  1  0
 41106  1  0
 41107  1  0
 42108  1  0
 43109  1  0
 43110  1  0
 44111  1  0
 44112  1  0
 46113  1  0
 46114  1  0
 47115  1  0
 53116  1  0
 57117  1  0
 60118  1  0
 61119  1  0
 62120  1  0
 64121  1  0
 65122  1  0
 66123  1  0
 66124  1  0
 67125  1  0
 67126  1  0
 68127  1  0
 68128  1  0
 69129  1  0
 69130  1  0
M  CHG  2  50   1  52  -1
M  END
$$$$

     RDKit          3D

130139  0  0  0  0  0  0  0  0999 V2000
   -6.6430    4.7478   -2.2945 C   0  0  0  0  0  0  0  0  0  0  0  0
   -5.9358    3.5676   -1.8069 N   0  0  0  0  0  0  0  0  0  0  0  0
   -6.6498    2.3488   -2.1777 C   0  0  0  0  0  0  0  0  0  0  0  0
   -5.6494    3.6296   -0.3625 C   0  0  0  0  0  0  0  0  0  0  0  0
   -6.8279    3.6794    0.6340 C   0  0  0  0  0  0  0  0  0  0  0  0
   -7.4889    2.4151    0.7344 O   0  0  0  0  0  0  0  0  0  0  0  0
   -7.4932    1.8616    2.0555 C   0  0  0  0  0  0  0  0  0  0  0  0
   -8.4415    0.6649    2.0861 C   0  0  0  0  0  0  0  0  0  0  0  0
   -7.5475   -0.5435    2.4110 C   0  0  0  0  0  0  0  0  0  0  0  0
   -8.0691   -1.8584    1.8450 C   0  0  0  0  0  0  0  0  0  0  0  0
   -8.4021   -2.8553    2.7961 C   0  0  0  0  0  0  0  0  0  0  0  0
   -8.9024   -4.0956    2.4138 C   0  0  0  0  0  0  0  0  0  0  0  0
   -9.0845   -4.3676    1.0701 C   0  0  0  0  0  0  0  0  0  0  0  0
   -8.7590   -3.3998    0.1176 C   0  0  0  0  0  0  0  0  0  0  0  0
   -8.2391   -2.1274    0.4577 C   0  0  0  0  0  0  0  0  0  0  0  0
   -7.8832   -1.1175   -0.6319 C   0  0  0  0  0  0  0  0  0  0  0  0
   -7.6087   -1.5114   -2.0643 C   0  0  0  0  0  0  0  0  0  0  0  0
   -8.8873   -0.8047   -1.7178 C   0  0  0  0  0  0  0  0  0  0  0  0
   -6.1769   -0.1306    2.0074 N   0  0  0  0  0  0  0  0  0  0  0  0
   -5.1429   -0.9323    2.6952 C   0  0  0  0  0  0  0  0  0  0  0  0
   -4.8148   -2.2037    1.8678 C   0  0  0  0  0  0  0  0  0  0  0  0
   -3.6237   -1.4652    1.1935 C   0  0  0  0  0  0  0  0  0  0  0  0
   -3.9302   -0.9395   -0.2169 C   0  0  0  0  0  0  0  0  0  0  0  0
   -2.7519   -0.1259   -0.7524 C   0  0  0  0  0  0  0  0  0  0  0  0
   -1.5141   -0.9359   -0.7098 N   0  0  0  0  0  0  0  0  0  0  0  0
   -0.4740   -0.4081   -1.4907 C   0  0  0  0  0  0  0  0  0  0  0  0
   -0.6428   -0.2960   -2.8790 C   0  0  0  0  0  0  0  0  0  0  0  0
    0.3600    0.2234   -3.7057 C   0  0  0  0  0  0  0  0  0  0  0  0
    1.5876    0.6305   -3.1700 C   0  0  0  0  0  0  0  0  0  0  0  0
    2.6017    1.1608   -4.1349 C   0  0  0  0  0  0  0  0  0  0  0  0
    2.2770    1.5186   -5.2551 O   0  0  0  0  0  0  0  0  0  0  0  0
    3.9228    1.1858   -3.6769 N   0  0  0  0  0  0  0  0  0  0  0  0
    5.2115    1.7655   -4.5515 S   0  0  0  0  0  0  0  0  0  0  0  0
    5.4226    0.9292   -5.7101 O   0  0  0  0  0  0  0  0  0  0  0  0
    5.1399    3.2069   -4.6165 O   0  0  0  0  0  0  0  0  0  0  0  0
    6.5231    1.3912   -3.3955 C   0  0  0  0  0  0  0  0  0  0  0  0
    7.3653    0.3040   -3.6235 C   0  0  0  0  0  0  0  0  0  0  0  0
    8.3347   -0.0244   -2.6733 C   0  0  0  0  0  0  0  0  0  0  0  0
    8.4848    0.7206   -1.4891 C   0  0  0  0  0  0  0  0  0  0  0  0
    9.4308    0.2543   -0.5363 N   0  0  0  0  0  0  0  0  0  0  0  0
    8.9333   -0.9112    0.2026 C   0  0  0  0  0  0  0  0  0  0  0  0
    9.9722   -1.5257    1.1518 C   0  0  0  0  0  0  0  0  0  0  0  0
   11.1987   -2.0918    0.4210 C   0  0  0  0  0  0  0  0  0  0  0  0
   12.2791   -1.0496    0.1722 C   0  0  0  0  0  0  0  0  0  0  0  0
   12.6633   -0.4365    1.3988 O   0  0  0  0  0  0  0  0  0  0  0  0
   11.5890    0.2858    2.0039 C   0  0  0  0  0  0  0  0  0  0  0  0
   10.3770   -0.5982    2.2994 C   0  0  0  0  0  0  0  0  0  0  0  0
   10.7070   -1.4027    3.3607 F   0  0  0  0  0  0  0  0  0  0  0  0
    7.6255    1.8262   -1.2875 C   0  0  0  0  0  0  0  0  0  0  0  0
    7.6828    2.6215   -0.0530 N   0  0  0  0  0  0  0  0  0  0  0  0
    8.6983    2.5337    0.6556 O   0  0  0  0  0  0  0  0  0  0  0  0
    6.6976    3.3211    0.2241 O   0  0  0  0  0  0  0  0  0  0  0  0
    6.6551    2.1721   -2.2436 C   0  0  0  0  0  0  0  0  0  0  0  0
    1.7891    0.4917   -1.7874 C   0  0  0  0  0  0  0  0  0  0  0  0
    2.9612    0.9507   -1.2207 O   0  0  0  0  0  0  0  0  0  0  0  0
    3.6091    0.1640   -0.2954 C   0  0  0  0  0  0  0  0  0  0  0  0
    3.7077   -1.2248   -0.3655 C   0  0  0  0  0  0  0  0  0  0  0  0
    4.3995   -2.0095    0.4967 N   0  0  0  0  0  0  0  0  0  0  0  0
    5.0126   -1.3078    1.4671 C   0  0  0  0  0  0  0  0  0  0  0  0
    5.7563   -1.8611    2.4739 N   0  0  0  0  0  0  0  0  0  0  0  0
    6.2639   -0.8679    3.2737 C   0  0  0  0  0  0  0  0  0  0  0  0
    5.8194    0.3419    2.7809 C   0  0  0  0  0  0  0  0  0  0  0  0
    5.0174    0.0722    1.6394 C   0  0  0  0  0  0  0  0  0  0  0  0
    4.2906    0.8413    0.7177 C   0  0  0  0  0  0  0  0  0  0  0  0
    0.7571    0.0032   -0.9633 C   0  0  0  0  0  0  0  0  0  0  0  0
   -1.1809   -1.4435    0.6315 C   0  0  0  0  0  0  0  0  0  0  0  0
   -2.3333   -2.2929    1.1691 C   0  0  0  0  0  0  0  0  0  0  0  0
   -3.7145   -0.4290    2.3505 C   0  0  0  0  0  0  0  0  0  0  0  0
   -6.1313    1.2793    2.4503 C   0  0  0  0  0  0  0  0  0  0  0  0
   -7.6637    4.8227   -1.9049 H   0  0  0  0  0  0  0  0  0  0  0  0
   -6.1022    5.6621   -2.0269 H   0  0  0  0  0  0  0  0  0  0  0  0
   -6.7012    4.7294   -3.3887 H   0  0  0  0  0  0  0  0  0  0  0  0
   -6.6857    2.2498   -3.2685 H   0  0  0  0  0  0  0  0  0  0  0  0
   -7.6799    2.3347   -1.8084 H   0  0  0  0  0  0  0  0  0  0  0  0
   -6.1272    1.4628   -1.8029 H   0  0  0  0  0  0  0  0  0  0  0  0
   -5.0113    2.7725   -0.1147 H   0  0  0  0  0  0  0  0  0  0  0  0
   -5.0277    4.5175   -0.1894 H   0  0  0  0  0  0  0  0  0  0  0  0
   -6.4449    4.0006    1.6107 H   0  0  0  0  0  0  0  0  0  0  0  0
   -7.5707    4.4236    0.3313 H   0  0  0  0  0  0  0  0  0  0  0  0
   -7.8291    2.6278    2.7646 H   0  0  0  0  0  0  0  0  0  0  0  0
   -9.1838    0.7896    2.8843 H   0  0  0  0  0  0  0  0  0  0  0  0
   -8.9968    0.5705    1.1480 H   0  0  0  0  0  0  0  0  0  0  0  0
   -7.5552   -0.6230    3.5099 H   0  0  0  0  0  0  0  0  0  0  0  0
   -8.2696   -2.6650    3.8597 H   0  0  0  0  0  0  0  0  0  0  0  0
   -9.1496   -4.8422    3.1631 H   0  0  0  0  0  0  0  0  0  0  0  0
   -9.4779   -5.3295    0.7533 H   0  0  0  0  0  0  0  0  0  0  0  0
   -8.9225   -3.6549   -0.9267 H   0  0  0  0  0  0  0  0  0  0  0  0
   -7.2774   -0.2750   -0.3072 H   0  0  0  0  0  0  0  0  0  0  0  0
   -7.6532   -2.5507   -2.3612 H   0  0  0  0  0  0  0  0  0  0  0  0
   -6.8468   -0.9524   -2.5975 H   0  0  0  0  0  0  0  0  0  0  0  0
   -9.8120   -1.3685   -1.7555 H   0  0  0  0  0  0  0  0  0  0  0  0
   -8.9994    0.2326   -2.0100 H   0  0  0  0  0  0  0  0  0  0  0  0
   -5.3104   -1.0995    3.7649 H   0  0  0  0  0  0  0  0  0  0  0  0
   -4.5092   -3.0415    2.5092 H   0  0  0  0  0  0  0  0  0  0  0  0
   -5.5601   -2.5945    1.1731 H   0  0  0  0  0  0  0  0  0  0  0  0
   -4.8252   -0.3116   -0.2336 H   0  0  0  0  0  0  0  0  0  0  0  0
   -4.1242   -1.7855   -0.8891 H   0  0  0  0  0  0  0  0  0  0  0  0
   -2.6132    0.7850   -0.1561 H   0  0  0  0  0  0  0  0  0  0  0  0
   -3.0032    0.1894   -1.7714 H   0  0  0  0  0  0  0  0  0  0  0  0
   -1.5702   -0.6341   -3.3387 H   0  0  0  0  0  0  0  0  0  0  0  0
    0.1710    0.2977   -4.7762 H   0  0  0  0  0  0  0  0  0  0  0  0
    4.1290    0.8953   -2.7302 H   0  0  0  0  0  0  0  0  0  0  0  0
    7.2716   -0.2996   -4.5251 H   0  0  0  0  0  0  0  0  0  0  0  0
    8.9871   -0.8772   -2.8582 H   0  0  0  0  0  0  0  0  0  0  0  0
    9.6371    1.0270    0.1087 H   0  0  0  0  0  0  0  0  0  0  0  0
    8.6091   -1.6949   -0.4946 H   0  0  0  0  0  0  0  0  0  0  0  0
    8.0514   -0.6182    0.7820 H   0  0  0  0  0  0  0  0  0  0  0  0
    9.4642   -2.3885    1.6070 H   0  0  0  0  0  0  0  0  0  0  0  0
   10.9089   -2.5728   -0.5198 H   0  0  0  0  0  0  0  0  0  0  0  0
   11.6294   -2.8749    1.0591 H   0  0  0  0  0  0  0  0  0  0  0  0
   11.9706   -0.2837   -0.5456 H   0  0  0  0  0  0  0  0  0  0  0  0
   13.1669   -1.5381   -0.2427 H   0  0  0  0  0  0  0  0  0  0  0  0
   11.9736    0.6978    2.9425 H   0  0  0  0  0  0  0  0  0  0  0  0
   11.3291    1.1310    1.3600 H   0  0  0  0  0  0  0  0  0  0  0  0
    9.5354    0.0146    2.6375 H   0  0  0  0  0  0  0  0  0  0  0  0
    5.9953    3.0263   -2.0938 H   0  0  0  0  0  0  0  0  0  0  0  0
    3.2194   -1.7828   -1.1615 H   0  0  0  0  0  0  0  0  0  0  0  0
    5.8922   -2.8552    2.5906 H   0  0  0  0  0  0  0  0  0  0  0  0
    6.8853   -1.1083    4.1272 H   0  0  0  0  0  0  0  0  0  0  0  0
    6.0421    1.3150    3.2017 H   0  0  0  0  0  0  0  0  0  0  0  0
    4.2557    1.9236    0.7960 H   0  0  0  0  0  0  0  0  0  0  0  0
    0.9181   -0.0218    0.1106 H   0  0  0  0  0  0  0  0  0  0  0  0
   -0.2866   -2.0776    0.5908 H   0  0  0  0  0  0  0  0  0  0  0  0
   -0.9812   -0.6094    1.3160 H   0  0  0  0  0  0  0  0  0  0  0  0
   -2.0797   -2.6592    2.1709 H   0  0  0  0  0  0  0  0  0  0  0  0
   -2.4709   -3.1750    0.5305 H   0  0  0  0  0  0  0  0  0  0  0  0
   -3.0077   -0.6259    3.1688 H   0  0  0  0  0  0  0  0  0  0  0  0
   -3.5695    0.6152    2.0652 H   0  0  0  0  0  0  0  0  0  0  0  0
   -6.0140    1.3395    3.5406 H   0  0  0  0  0  0  0  0  0  0  0  0
   -5.3096    1.8215    1.9796 H   0  0  0  0  0  0  0  0  0  0  0  0
  1  2  1  0
  2  3  1  0
  2  4  1  0
  4  5  1  0
  5  6  1  0
  6  7  1  0
  7  8  1  0
  8  9  1  0
  9 10  1  0
 10 11  2  0
 11 12  1  0
 12 13  2  0
 13 14  1  0
 14 15  2  0
 15 16  1  0
 16 17  1  0
 17 18  1  0
  9 19  1  0
 19 20  1  0
 20 21  1  0
 21 22  1  0
 22 23  1  0
 23 24  1  0
 24 25  1  0
 25 26  1  0
 26 27  2  0
 27 28  1  0
 28 29  2  0
 29 30  1  0
 30 31  2  0
 30 32  1  0
 32 33  1  0
 33 34  2  0
 33 35  2  0
 33 36  1  0
 36 37  2  0
 37 38  1  0
 38 39  2  0
 39 40  1  0
 40 41  1  0
 41 42  1  0
 42 43  1  0
 43 44  1  0
 44 45  1  0
 45 46  1  0
 46 47  1  0
 47 48  1  0
 39 49  1  0
 49 50  1  0
 50 51  2  0
 50 52  1  0
 49 53  2  0
 29 54  1  0
 54 55  1  0
 55 56  1  0
 56 57  2  0
 57 58  1  0
 58 59  2  0
 59 60  1  0
 60 61  1  0
 61 62  2  0
 62 63  1  0
 63 64  2  0
 54 65  2  0
 25 66  1  0
 66 67  1  0
 22 68  1  0
 19 69  1  0
 69  7  1  0
 15 10  1  0
 18 16  1  0
 68 20  1  0
 67 22  1  0
 65 26  1  0
 53 36  1  0
 64 56  1  0
 47 42  1  0
 63 59  1  0
  1 70  1  0
  1 71  1  0
  1 72  1  0
  3 73  1  0
  3 74  1  0
  3 75  1  0
  4 76  1  0
  4 77  1  0
  5 78  1  0
  5 79  1  0
  7 80  1  0
  8 81  1  0
  8 82  1  0
  9 83  1  0
 11 84  1  0
 12 85  1  0
 13 86  1  0
 14 87  1  0
 16 88  1  0
 17 89  1  0
 17 90  1  0
 18 91  1  0
 18 92  1  0
 20 93  1  0
 21 94  1  0
 21 95  1  0
 23 96  1  0
 23 97  1  0
 24 98  1  0
 24 99  1  0
 27100  1  0
 28101  1  0
 32102  1  0
 37103  1  0
 38104  1  0
 40105  1  0
 41106  1  0
 41107  1  0
 42108  1  0
 43109  1  0
 43110  1  0
 44111  1  0
 44112  1  0
 46113  1  0
 46114  1  0
 47115  1  0
 53116  1  0
 57117  1  0
 60118  1  0
 61119  1  0
 62120  1  0
 64121  1  0
 65122  1  0
 66123  1  0
 66124  1  0
 67125  1  0
 67126  1  0
 68127  1  0
 68128  1  0
 69129  1  0
 69130  1  0
M  CHG  2  50   1  52  -1
M  END
$$$$

     RDKit          3D

130139  0  0  0  0  0  0  0  0999 V2000
   -6.0963    7.1527   -1.0275 C   0  0  0  0  0  0  0  0  0  0  0  0
   -7.1663    6.1506   -1.0350 N   0  0  0  0  0  0  0  0  0  0  0  0
   -8.4579    6.8101   -0.8311 C   0  0  0  0  0  0  0  0  0  0  0  0
   -6.9033    5.1313   -0.0016 C   0  0  0  0  0  0  0  0  0  0  0  0
   -7.8084    3.8936   -0.1005 C   0  0  0  0  0  0  0  0  0  0  0  0
   -7.3792    2.9354    0.8736 O   0  0  0  0  0  0  0  0  0  0  0  0
   -8.0924    1.6971    0.7869 C   0  0  0  0  0  0  0  0  0  0  0  0
   -7.8816    0.9304    2.0896 C   0  0  0  0  0  0  0  0  0  0  0  0
   -7.3194   -0.4415    1.6877 C   0  0  0  0  0  0  0  0  0  0  0  0
   -8.3457   -1.5854    1.6811 C   0  0  0  0  0  0  0  0  0  0  0  0
   -9.6596   -1.3678    1.2068 C   0  0  0  0  0  0  0  0  0  0  0  0
  -10.6014   -2.3945    1.1502 C   0  0  0  0  0  0  0  0  0  0  0  0
  -10.2508   -3.6700    1.5575 C   0  0  0  0  0  0  0  0  0  0  0  0
   -8.9623   -3.9094    2.0301 C   0  0  0  0  0  0  0  0  0  0  0  0
   -7.9882   -2.8897    2.1243 C   0  0  0  0  0  0  0  0  0  0  0  0
   -6.6097   -3.2474    2.6527 C   0  0  0  0  0  0  0  0  0  0  0  0
   -6.4528   -4.1612    3.8516 C   0  0  0  0  0  0  0  0  0  0  0  0
   -6.1363   -2.7067    3.9846 C   0  0  0  0  0  0  0  0  0  0  0  0
   -6.6936   -0.2466    0.3494 N   0  0  0  0  0  0  0  0  0  0  0  0
   -5.3249    0.2840    0.5152 C   0  0  0  0  0  0  0  0  0  0  0  0
   -4.6048    0.3457   -0.8584 C   0  0  0  0  0  0  0  0  0  0  0  0
   -3.3539   -0.2870   -0.1680 C   0  0  0  0  0  0  0  0  0  0  0  0
   -2.6363   -1.3666   -0.9891 C   0  0  0  0  0  0  0  0  0  0  0  0
   -1.7756   -0.7097   -2.0708 C   0  0  0  0  0  0  0  0  0  0  0  0
   -0.8104    0.2189   -1.4471 N   0  0  0  0  0  0  0  0  0  0  0  0
    0.4371   -0.2811   -1.0777 C   0  0  0  0  0  0  0  0  0  0  0  0
    1.0556    0.0155    0.1423 C   0  0  0  0  0  0  0  0  0  0  0  0
    2.3195   -0.4928    0.4786 C   0  0  0  0  0  0  0  0  0  0  0  0
    3.0278   -1.3212   -0.4018 C   0  0  0  0  0  0  0  0  0  0  0  0
    4.3656   -1.8035    0.0580 C   0  0  0  0  0  0  0  0  0  0  0  0
    4.7972   -1.4844    1.1555 O   0  0  0  0  0  0  0  0  0  0  0  0
    5.0931   -2.6008   -0.8279 N   0  0  0  0  0  0  0  0  0  0  0  0
    6.5538   -3.3171   -0.5036 S   0  0  0  0  0  0  0  0  0  0  0  0
    6.9797   -3.9109   -1.7545 O   0  0  0  0  0  0  0  0  0  0  0  0
    6.4425   -4.1140    0.6960 O   0  0  0  0  0  0  0  0  0  0  0  0
    7.6270   -1.9396   -0.1881 C   0  0  0  0  0  0  0  0  0  0  0  0
    8.2513   -1.2914   -1.2531 C   0  0  0  0  0  0  0  0  0  0  0  0
    9.1182   -0.2172   -1.0070 C   0  0  0  0  0  0  0  0  0  0  0  0
    9.3699    0.2562    0.2938 C   0  0  0  0  0  0  0  0  0  0  0  0
   10.3005    1.2759    0.5363 N   0  0  0  0  0  0  0  0  0  0  0  0
   10.7845    2.1370   -0.5367 C   0  0  0  0  0  0  0  0  0  0  0  0
   11.7491    3.2176   -0.0264 C   0  0  0  0  0  0  0  0  0  0  0  0
   12.9456    2.6364    0.7383 C   0  0  0  0  0  0  0  0  0  0  0  0
   13.8540    3.7598    1.2216 C   0  0  0  0  0  0  0  0  0  0  0  0
   13.1388    4.6679    2.0548 O   0  0  0  0  0  0  0  0  0  0  0  0
   12.0342    5.2887    1.3909 C   0  0  0  0  0  0  0  0  0  0  0  0
   11.0415    4.2751    0.8217 C   0  0  0  0  0  0  0  0  0  0  0  0
   10.4059    3.6610    1.8591 F   0  0  0  0  0  0  0  0  0  0  0  0
    8.7530   -0.4630    1.3462 C   0  0  0  0  0  0  0  0  0  0  0  0
    8.9912   -0.0907    2.7358 N   0  0  0  0  0  0  0  0  0  0  0  0
    9.2091   -1.0073    3.5414 O   0  0  0  0  0  0  0  0  0  0  0  0
    8.9340    1.1138    3.0237 O   0  0  0  0  0  0  0  0  0  0  0  0
    7.8911   -1.5493    1.1216 C   0  0  0  0  0  0  0  0  0  0  0  0
    2.4306   -1.6296   -1.6274 C   0  0  0  0  0  0  0  0  0  0  0  0
    3.0974   -2.3997   -2.5587 O   0  0  0  0  0  0  0  0  0  0  0  0
    2.4152   -3.4806   -3.0718 C   0  0  0  0  0  0  0  0  0  0  0  0
    2.4788   -3.6941   -4.4460 C   0  0  0  0  0  0  0  0  0  0  0  0
    1.8895   -4.7127   -5.1163 N   0  0  0  0  0  0  0  0  0  0  0  0
    1.2240   -5.5516   -4.3009 C   0  0  0  0  0  0  0  0  0  0  0  0
    0.5471   -6.6638   -4.7205 N   0  0  0  0  0  0  0  0  0  0  0  0
   -0.0121   -7.3016   -3.6424 C   0  0  0  0  0  0  0  0  0  0  0  0
    0.3153   -6.5841   -2.5104 C   0  0  0  0  0  0  0  0  0  0  0  0
    1.0977   -5.4697   -2.9176 C   0  0  0  0  0  0  0  0  0  0  0  0
    1.7261   -4.3938   -2.2692 C   0  0  0  0  0  0  0  0  0  0  0  0
    1.1727   -1.0880   -1.9609 C   0  0  0  0  0  0  0  0  0  0  0  0
   -1.4605    1.2915   -0.6765 C   0  0  0  0  0  0  0  0  0  0  0  0
   -2.3449    0.7091    0.4301 C   0  0  0  0  0  0  0  0  0  0  0  0
   -4.3567   -0.8722    0.8728 C   0  0  0  0  0  0  0  0  0  0  0  0
   -7.5341    0.7794   -0.3075 C   0  0  0  0  0  0  0  0  0  0  0  0
   -6.2572    7.8942   -1.8181 H   0  0  0  0  0  0  0  0  0  0  0  0
   -5.1277    6.6841   -1.2342 H   0  0  0  0  0  0  0  0  0  0  0  0
   -6.0286    7.6786   -0.0684 H   0  0  0  0  0  0  0  0  0  0  0  0
   -9.2851    6.1015   -0.9375 H   0  0  0  0  0  0  0  0  0  0  0  0
   -8.5297    7.2844    0.1543 H   0  0  0  0  0  0  0  0  0  0  0  0
   -8.6204    7.5803   -1.5941 H   0  0  0  0  0  0  0  0  0  0  0  0
   -5.8684    4.7749   -0.0984 H   0  0  0  0  0  0  0  0  0  0  0  0
   -6.9731    5.5589    1.0079 H   0  0  0  0  0  0  0  0  0  0  0  0
   -8.8510    4.1555    0.1075 H   0  0  0  0  0  0  0  0  0  0  0  0
   -7.7424    3.4647   -1.1060 H   0  0  0  0  0  0  0  0  0  0  0  0
   -9.1597    1.8966    0.6341 H   0  0  0  0  0  0  0  0  0  0  0  0
   -8.8101    0.8585    2.6664 H   0  0  0  0  0  0  0  0  0  0  0  0
   -7.1576    1.4571    2.7250 H   0  0  0  0  0  0  0  0  0  0  0  0
   -6.5604   -0.6900    2.4341 H   0  0  0  0  0  0  0  0  0  0  0  0
   -9.9737   -0.3881    0.8615 H   0  0  0  0  0  0  0  0  0  0  0  0
  -11.6023   -2.1968    0.7765 H   0  0  0  0  0  0  0  0  0  0  0  0
  -10.9714   -4.4812    1.5052 H   0  0  0  0  0  0  0  0  0  0  0  0
   -8.7041   -4.9229    2.3323 H   0  0  0  0  0  0  0  0  0  0  0  0
   -5.8536   -3.3762    1.8817 H   0  0  0  0  0  0  0  0  0  0  0  0
   -7.3327   -4.5244    4.3699 H   0  0  0  0  0  0  0  0  0  0  0  0
   -5.6269   -4.8635    3.8448 H   0  0  0  0  0  0  0  0  0  0  0  0
   -5.0953   -2.4161    4.0672 H   0  0  0  0  0  0  0  0  0  0  0  0
   -6.8144   -2.0979    4.5719 H   0  0  0  0  0  0  0  0  0  0  0  0
   -5.2064    1.1844    1.1290 H   0  0  0  0  0  0  0  0  0  0  0  0
   -4.4706    1.3529   -1.2649 H   0  0  0  0  0  0  0  0  0  0  0  0
   -5.0391   -0.2839   -1.6462 H   0  0  0  0  0  0  0  0  0  0  0  0
   -2.0064   -1.9771   -0.3298 H   0  0  0  0  0  0  0  0  0  0  0  0
   -3.3573   -2.0449   -1.4605 H   0  0  0  0  0  0  0  0  0  0  0  0
   -1.3033   -1.4865   -2.6795 H   0  0  0  0  0  0  0  0  0  0  0  0
   -2.4129   -0.1365   -2.7562 H   0  0  0  0  0  0  0  0  0  0  0  0
    0.5669    0.6425    0.8823 H   0  0  0  0  0  0  0  0  0  0  0  0
    2.7416   -0.2282    1.4479 H   0  0  0  0  0  0  0  0  0  0  0  0
    4.7628   -2.7865   -1.7700 H   0  0  0  0  0  0  0  0  0  0  0  0
    8.0860   -1.6198   -2.2776 H   0  0  0  0  0  0  0  0  0  0  0  0
    9.5970    0.2384   -1.8696 H   0  0  0  0  0  0  0  0  0  0  0  0
   10.0831    1.8070    1.3951 H   0  0  0  0  0  0  0  0  0  0  0  0
   11.3231    1.5321   -1.2763 H   0  0  0  0  0  0  0  0  0  0  0  0
    9.9392    2.6180   -1.0442 H   0  0  0  0  0  0  0  0  0  0  0  0
   12.1458    3.7307   -0.9144 H   0  0  0  0  0  0  0  0  0  0  0  0
   13.5100    1.9478    0.0999 H   0  0  0  0  0  0  0  0  0  0  0  0
   12.5942    2.0715    1.6103 H   0  0  0  0  0  0  0  0  0  0  0  0
   14.2930    4.3083    0.3799 H   0  0  0  0  0  0  0  0  0  0  0  0
   14.6777    3.3447    1.8109 H   0  0  0  0  0  0  0  0  0  0  0  0
   11.5322    5.9231    2.1280 H   0  0  0  0  0  0  0  0  0  0  0  0
   12.4246    5.9358    0.5970 H   0  0  0  0  0  0  0  0  0  0  0  0
   10.2725    4.7929    0.2389 H   0  0  0  0  0  0  0  0  0  0  0  0
    7.4231   -2.0708    1.9561 H   0  0  0  0  0  0  0  0  0  0  0  0
    3.0324   -3.0056   -5.0801 H   0  0  0  0  0  0  0  0  0  0  0  0
    0.4893   -6.9513   -5.6864 H   0  0  0  0  0  0  0  0  0  0  0  0
   -0.5876   -8.2084   -3.7734 H   0  0  0  0  0  0  0  0  0  0  0  0
    0.0240   -6.8369   -1.4992 H   0  0  0  0  0  0  0  0  0  0  0  0
    1.6743   -4.2937   -1.1913 H   0  0  0  0  0  0  0  0  0  0  0  0
    0.7782   -1.2779   -2.9566 H   0  0  0  0  0  0  0  0  0  0  0  0
   -0.7350    2.0043   -0.2686 H   0  0  0  0  0  0  0  0  0  0  0  0
   -2.0815    1.8758   -1.3673 H   0  0  0  0  0  0  0  0  0  0  0  0
   -1.7291    0.1938    1.1765 H   0  0  0  0  0  0  0  0  0  0  0  0
   -2.8526    1.5281    0.9520 H   0  0  0  0  0  0  0  0  0  0  0  0
   -4.0122   -0.8903    1.9114 H   0  0  0  0  0  0  0  0  0  0  0  0
   -4.7106   -1.8766    0.6106 H   0  0  0  0  0  0  0  0  0  0  0  0
   -8.3624    0.2613   -0.8048 H   0  0  0  0  0  0  0  0  0  0  0  0
   -7.0039    1.3239   -1.0947 H   0  0  0  0  0  0  0  0  0  0  0  0
  1  2  1  0
  2  3  1  0
  2  4  1  0
  4  5  1  0
  5  6  1  0
  6  7  1  0
  7  8  1  0
  8  9  1  0
  9 10  1  0
 10 11  2  0
 11 12  1  0
 12 13  2  0
 13 14  1  0
 14 15  2  0
 15 16  1  0
 16 17  1  0
 17 18  1  0
  9 19  1  0
 19 20  1  0
 20 21  1  0
 21 22  1  0
 22 23  1  0
 23 24  1  0
 24 25  1  0
 25 26  1  0
 26 27  2  0
 27 28  1  0
 28 29  2  0
 29 30  1  0
 30 31  2  0
 30 32  1  0
 32 33  1  0
 33 34  2  0
 33 35  2  0
 33 36  1  0
 36 37  2  0
 37 38  1  0
 38 39  2  0
 39 40  1  0
 40 41  1  0
 41 42  1  0
 42 43  1  0
 43 44  1  0
 44 45  1  0
 45 46  1  0
 46 47  1  0
 47 48  1  0
 39 49  1  0
 49 50  1  0
 50 51  2  0
 50 52  1  0
 49 53  2  0
 29 54  1  0
 54 55  1  0
 55 56  1  0
 56 57  2  0
 57 58  1  0
 58 59  2  0
 59 60  1  0
 60 61  1  0
 61 62  2  0
 62 63  1  0
 63 64  2  0
 54 65  2  0
 25 66  1  0
 66 67  1  0
 22 68  1  0
 19 69  1  0
 69  7  1  0
 15 10  1  0
 18 16  1  0
 68 20  1  0
 67 22  1  0
 65 26  1  0
 53 36  1  0
 64 56  1  0
 47 42  1  0
 63 59  1  0
  1 70  1  0
  1 71  1  0
  1 72  1  0
  3 73  1  0
  3 74  1  0
  3 75  1  0
  4 76  1  0
  4 77  1  0
  5 78  1  0
  5 79  1  0
  7 80  1  0
  8 81  1  0
  8 82  1  0
  9 83  1  0
 11 84  1  0
 12 85  1  0
 13 86  1  0
 14 87  1  0
 16 88  1  0
 17 89  1  0
 17 90  1  0
 18 91  1  0
 18 92  1  0
 20 93  1  0
 21 94  1  0
 21 95  1  0
 23 96  1  0
 23 97  1  0
 24 98  1  0
 24 99  1  0
 27100  1  0
 28101  1  0
 32102  1  0
 37103  1  0
 38104  1  0
 40105  1  0
 41106  1  0
 41107  1  0
 42108  1  0
 43109  1  0
 43110  1  0
 44111  1  0
 44112  1  0
 46113  1  0
 46114  1  0
 47115  1  0
 53116  1  0
 57117  1  0
 60118  1  0
 61119  1  0
 62120  1  0
 64121  1  0
 65122  1  0
 66123  1  0
 66124  1  0
 67125  1  0
 67126  1  0
 68127  1  0
 68128  1  0
 69129  1  0
 69130  1  0
M  CHG  2  50   1  52  -1
M  END
$$$$
