
     RDKit          3D

125133  0  0  0  0  0  0  0  0999 V2000
   -0.6997   -6.1501   -0.8415 C   0  0  0  0  0  0  0  0  0  0  0  0
   -2.0280   -5.5874   -1.1191 N   0  0  0  0  0  0  0  0  0  0  0  0
   -2.7061   -5.2907    0.1491 C   0  0  0  0  0  0  0  0  0  0  0  0
   -3.9762   -4.4812   -0.1457 C   0  0  0  0  0  0  0  0  0  0  0  0
   -5.0683   -5.0609   -0.2225 O   0  0  0  0  0  0  0  0  0  0  0  0
   -3.8577   -3.0996   -0.3240 N   0  0  0  0  0  0  0  0  0  0  0  0
   -5.0155   -2.4076   -0.8584 C   0  0  0  0  0  0  0  0  0  0  0  0
   -5.1147   -0.9907   -0.3212 C   0  0  0  0  0  0  0  0  0  0  0  0
   -3.8461   -0.1623   -0.5334 C   0  0  0  0  0  0  0  0  0  0  0  0
   -3.8283    0.5540   -1.8798 C   0  0  0  0  0  0  0  0  0  0  0  0
   -3.3899   -0.1638   -3.0131 C   0  0  0  0  0  0  0  0  0  0  0  0
   -3.3385    0.4088   -4.2870 C   0  0  0  0  0  0  0  0  0  0  0  0
   -3.7042    1.7298   -4.4647 C   0  0  0  0  0  0  0  0  0  0  0  0
   -4.1273    2.4671   -3.3636 C   0  0  0  0  0  0  0  0  0  0  0  0
   -4.2282    1.9078   -2.0580 C   0  0  0  0  0  0  0  0  0  0  0  0
   -4.8093    2.8560   -1.0126 C   0  0  1  0  0  0  0  0  0  0  0  0
   -5.9554    2.4016   -0.1099 C   0  0  0  0  0  0  0  0  0  0  0  0
   -6.2005    3.6626    0.7071 C   0  0  0  0  0  0  0  0  0  0  0  0
   -4.8066    4.2733    0.9049 C   0  0  0  0  0  0  0  0  0  0  0  0
   -3.9272    3.6358   -0.1015 N   0  0  0  0  0  0  0  0  0  0  0  0
   -2.7347    3.0604    0.3428 C   0  0  0  0  0  0  0  0  0  0  0  0
   -2.5455    2.5412    1.6332 C   0  0  0  0  0  0  0  0  0  0  0  0
   -1.3350    1.9541    2.0251 C   0  0  0  0  0  0  0  0  0  0  0  0
   -0.2650    1.8547    1.1345 C   0  0  0  0  0  0  0  0  0  0  0  0
    1.0024    1.2381    1.5412 C   0  0  0  0  0  0  0  0  0  0  0  0
    1.4874    0.0795    0.9196 C   0  0  0  0  0  0  0  0  0  0  0  0
    2.7233   -0.4772    1.2820 C   0  0  0  0  0  0  0  0  0  0  0  0
    3.5083    0.1181    2.2734 C   0  0  0  0  0  0  0  0  0  0  0  0
    4.8564   -0.4125    2.6150 C   0  0  0  0  0  0  0  0  0  0  0  0
    5.7731    0.3693    2.8708 O   0  0  0  0  0  0  0  0  0  0  0  0
    4.9803   -1.7874    2.6676 N   0  0  0  0  0  0  0  0  0  0  0  0
    6.5143   -2.3905    2.3105 S   0  0  0  0  0  0  0  0  0  0  0  0
    6.6518   -3.7774    2.8692 O   0  0  0  0  0  0  0  0  0  0  0  0
    6.0375   -2.6270    0.5707 C   0  0  0  0  0  0  0  0  0  0  0  0
    6.4962   -1.7292   -0.3990 C   0  0  0  0  0  0  0  0  0  0  0  0
    5.8850   -1.7008   -1.6522 C   0  0  0  0  0  0  0  0  0  0  0  0
    4.7826   -2.5278   -1.9110 C   0  0  0  0  0  0  0  0  0  0  0  0
    4.0269   -2.3481   -3.1311 N   0  0  0  0  0  0  0  0  0  0  0  0
    2.9596   -1.3739   -2.8309 C   0  0  0  0  0  0  0  0  0  0  0  0
    2.0991   -1.1404   -4.0950 C   0  0  1  0  0  0  0  0  0  0  0  0
    0.6609   -0.7382   -3.7004 C   0  0  0  0  0  0  0  0  0  0  0  0
    0.5823    0.7491   -3.3930 C   0  0  0  0  0  0  0  0  0  0  0  0
    0.8783    1.5925   -4.6498 C   0  0  2  0  0  0  0  0  0  0  0  0
    1.5297    2.9207   -4.2488 C   0  0  0  0  0  0  0  0  0  0  0  0
   -0.3518    1.9286   -5.3118 O   0  0  0  0  0  0  0  0  0  0  0  0
    1.7424    0.8329   -5.6772 C   0  0  0  0  0  0  0  0  0  0  0  0
    2.7615   -0.0910   -5.0144 C   0  0  0  0  0  0  0  0  0  0  0  0
    4.2921   -3.4255   -0.9308 C   0  0  0  0  0  0  0  0  0  0  0  0
    3.1464   -4.1328   -1.1179 N   0  0  0  0  0  2  0  0  0  0  0  0
    2.1878   -3.8128   -0.0813 O   0  0  0  0  0  0  0  0  0  0  0  0
    5.0158   -3.5287    0.2641 C   0  0  0  0  0  0  0  0  0  0  0  0
    3.0205    1.2685    2.9108 C   0  0  0  0  0  0  0  0  0  0  0  0
    3.7797    1.9284    3.8486 O   0  0  0  0  0  0  0  0  0  0  0  0
    3.3589    1.8954    5.1579 C   0  0  0  0  0  0  0  0  0  0  0  0
    2.6342    0.8626    5.7519 C   0  0  0  0  0  0  0  0  0  0  0  0
    2.2503    0.8162    7.0565 N   0  0  0  0  0  0  0  0  0  0  0  0
    2.6894    1.8692    7.7644 C   0  0  0  0  0  0  0  0  0  0  0  0
    2.4932    2.0266    9.1082 N   0  0  0  0  0  0  0  0  0  0  0  0
    3.0694    3.2015    9.5239 C   0  0  0  0  0  0  0  0  0  0  0  0
    3.6482    3.8015    8.4236 C   0  0  0  0  0  0  0  0  0  0  0  0
    3.4246    2.9549    7.3065 C   0  0  0  0  0  0  0  0  0  0  0  0
    3.7721    2.9687    5.9479 C   0  0  0  0  0  0  0  0  0  0  0  0
    1.7872    1.8259    2.5430 C   0  0  0  0  0  0  0  0  0  0  0  0
   -0.4369    2.3829   -0.1500 C   0  0  0  0  0  0  0  0  0  0  0  0
   -1.6450    2.9801   -0.5328 C   0  0  0  0  0  0  0  0  0  0  0  0
   -2.5768   -0.9595   -0.1759 C   0  0  0  0  0  0  0  0  0  0  0  0
   -2.5621   -2.4442   -0.5526 C   0  0  0  0  0  0  0  0  0  0  0  0
   -0.0964   -5.4689   -0.2402 H   0  0  0  0  0  0  0  0  0  0  0  0
   -0.1643   -6.3374   -1.7802 H   0  0  0  0  0  0  0  0  0  0  0  0
   -0.7983   -7.1054   -0.3077 H   0  0  0  0  0  0  0  0  0  0  0  0
   -2.5762   -6.2574   -1.6493 H   0  0  0  0  0  0  0  0  0  0  0  0
   -2.0746   -4.7540    0.8642 H   0  0  0  0  0  0  0  0  0  0  0  0
   -3.0159   -6.2223    0.6459 H   0  0  0  0  0  0  0  0  0  0  0  0
   -5.9346   -2.9410   -0.6000 H   0  0  0  0  0  0  0  0  0  0  0  0
   -4.9445   -2.4225   -1.9509 H   0  0  0  0  0  0  0  0  0  0  0  0
   -5.9917   -0.5037   -0.7552 H   0  0  0  0  0  0  0  0  0  0  0  0
   -5.2961   -1.0527    0.7576 H   0  0  0  0  0  0  0  0  0  0  0  0
   -3.8734    0.6265    0.2179 H   0  0  0  0  0  0  0  0  0  0  0  0
   -3.0732   -1.1999   -2.9286 H   0  0  0  0  0  0  0  0  0  0  0  0
   -2.9897   -0.1832   -5.1283 H   0  0  0  0  0  0  0  0  0  0  0  0
   -3.6611    2.1881   -5.4531 H   0  0  0  0  0  0  0  0  0  0  0  0
   -4.3999    3.5104   -3.5334 H   0  0  0  0  0  0  0  0  0  0  0  0
   -5.2878    3.6417   -1.6223 H   0  0  0  0  0  0  0  0  0  0  0  0
   -6.8387    2.0974   -0.6755 H   0  0  0  0  0  0  0  0  0  0  0  0
   -5.6815    1.5928    0.5670 H   0  0  0  0  0  0  0  0  0  0  0  0
   -6.8358    4.3589    0.1474 H   0  0  0  0  0  0  0  0  0  0  0  0
   -6.6994    3.4514    1.6568 H   0  0  0  0  0  0  0  0  0  0  0  0
   -4.4922    4.1599    1.9432 H   0  0  0  0  0  0  0  0  0  0  0  0
   -4.8470    5.3515    0.7097 H   0  0  0  0  0  0  0  0  0  0  0  0
   -3.3487    2.5343    2.3621 H   0  0  0  0  0  0  0  0  0  0  0  0
   -1.2469    1.5465    3.0315 H   0  0  0  0  0  0  0  0  0  0  0  0
    0.9209   -0.4339    0.1406 H   0  0  0  0  0  0  0  0  0  0  0  0
    3.0433   -1.3754    0.7453 H   0  0  0  0  0  0  0  0  0  0  0  0
    4.2248   -2.3520    2.2705 H   0  0  0  0  0  0  0  0  0  0  0  0
    7.2707   -1.0097   -0.1634 H   0  0  0  0  0  0  0  0  0  0  0  0
    6.2042   -0.9968   -2.4095 H   0  0  0  0  0  0  0  0  0  0  0  0
    3.5227   -3.2568   -3.0974 H   0  0  0  0  0  0  0  0  0  0  0  0
    3.3892   -0.4261   -2.4839 H   0  0  0  0  0  0  0  0  0  0  0  0
    2.3140   -1.7438   -2.0306 H   0  0  0  0  0  0  0  0  0  0  0  0
    2.0172   -2.0888   -4.6449 H   0  0  0  0  0  0  0  0  0  0  0  0
    0.3151   -1.3212   -2.8355 H   0  0  0  0  0  0  0  0  0  0  0  0
   -0.0318   -0.9797   -4.5195 H   0  0  0  0  0  0  0  0  0  0  0  0
   -0.4084    0.9760   -2.9872 H   0  0  0  0  0  0  0  0  0  0  0  0
    1.3122    0.9740   -2.6056 H   0  0  0  0  0  0  0  0  0  0  0  0
    1.6911    3.5554   -5.1286 H   0  0  0  0  0  0  0  0  0  0  0  0
    2.4931    2.7667   -3.7522 H   0  0  0  0  0  0  0  0  0  0  0  0
    0.8768    3.4933   -3.5770 H   0  0  0  0  0  0  0  0  0  0  0  0
   -1.0065    2.1265   -4.6167 H   0  0  0  0  0  0  0  0  0  0  0  0
    1.0993    0.2382   -6.3417 H   0  0  0  0  0  0  0  0  0  0  0  0
    2.2581    1.5442   -6.3359 H   0  0  0  0  0  0  0  0  0  0  0  0
    3.3467   -0.6000   -5.7913 H   0  0  0  0  0  0  0  0  0  0  0  0
    3.4787    0.5236   -4.4572 H   0  0  0  0  0  0  0  0  0  0  0  0
    4.6328   -4.2225    1.0130 H   0  0  0  0  0  0  0  0  0  0  0  0
    2.3288   -0.0092    5.1803 H   0  0  0  0  0  0  0  0  0  0  0  0
    2.0044    1.3547    9.6769 H   0  0  0  0  0  0  0  0  0  0  0  0
    3.0250    3.5007   10.5622 H   0  0  0  0  0  0  0  0  0  0  0  0
    4.1920    4.7352    8.4206 H   0  0  0  0  0  0  0  0  0  0  0  0
    4.3624    3.7735    5.5197 H   0  0  0  0  0  0  0  0  0  0  0  0
    1.4517    2.7432    3.0204 H   0  0  0  0  0  0  0  0  0  0  0  0
    0.3764    2.3265   -0.8653 H   0  0  0  0  0  0  0  0  0  0  0  0
   -1.7333    3.3779   -1.5408 H   0  0  0  0  0  0  0  0  0  0  0  0
   -1.6859   -0.4744   -0.5739 H   0  0  0  0  0  0  0  0  0  0  0  0
   -2.4799   -0.9149    0.9142 H   0  0  0  0  0  0  0  0  0  0  0  0
   -2.2992   -2.5875   -1.6064 H   0  0  0  0  0  0  0  0  0  0  0  0
   -1.7674   -2.9268    0.0234 H   0  0  0  0  0  0  0  0  0  0  0  0
  1  2  1  0
  2  3  1  0
  3  4  1  0
  4  5  2  0
  4  6  1  0
  6  7  1  0
  7  8  1  0
  8  9  1  0
  9 10  1  0
 10 11  2  0
 11 12  1  0
 12 13  2  0
 13 14  1  0
 14 15  2  0
 15 16  1  0
 16 17  1  0
 17 18  1  0
 18 19  1  0
 19 20  1  0
 20 21  1  0
 21 22  2  0
 22 23  1  0
 23 24  2  0
 24 25  1  0
 25 26  2  0
 26 27  1  0
 27 28  2  0
 28 29  1  0
 29 30  2  0
 29 31  1  0
 31 32  1  0
 32 33  2  0
 32 34  1  0
 34 35  2  0
 35 36  1  0
 36 37  2  0
 37 38  1  0
 38 39  1  0
 39 40  1  0
 40 41  1  0
 41 42  1  0
 42 43  1  0
 43 44  1  0
 43 45  1  6
 43 46  1  0
 46 47  1  0
 37 48  1  0
 48 49  1  0
 49 50  1  0
 48 51  2  0
 28 52  1  0
 52 53  1  0
 53 54  1  0
 54 55  2  0
 55 56  1  0
 56 57  2  0
 57 58  1  0
 58 59  1  0
 59 60  2  0
 60 61  1  0
 61 62  2  0
 52 63  2  0
 24 64  1  0
 64 65  2  0
  9 66  1  0
 66 67  1  0
 67  6  1  0
 15 10  1  0
 20 16  1  0
 65 21  1  0
 63 25  1  0
 51 34  1  0
 62 54  1  0
 47 40  1  0
 61 57  1  0
  1 68  1  0
  1 69  1  0
  1 70  1  0
  2 71  1  0
  3 72  1  0
  3 73  1  0
  7 74  1  0
  7 75  1  0
  8 76  1  0
  8 77  1  0
  9 78  1  0
 11 79  1  0
 12 80  1  0
 13 81  1  0
 14 82  1  0
 16 83  1  6
 17 84  1  0
 17 85  1  0
 18 86  1  0
 18 87  1  0
 19 88  1  0
 19 89  1  0
 22 90  1  0
 23 91  1  0
 26 92  1  0
 27 93  1  0
 31 94  1  0
 35 95  1  0
 36 96  1  0
 38 97  1  0
 39 98  1  0
 39 99  1  0
 40100  1  6
 41101  1  0
 41102  1  0
 42103  1  0
 42104  1  0
 44105  1  0
 44106  1  0
 44107  1  0
 45108  1  0
 46109  1  0
 46110  1  0
 47111  1  0
 47112  1  0
 51113  1  0
 55114  1  0
 58115  1  0
 59116  1  0
 60117  1  0
 62118  1  0
 63119  1  0
 64120  1  0
 65121  1  0
 66122  1  0
 66123  1  0
 67124  1  0
 67125  1  0
M  CHG  2  49   1  50  -1
M  RAD  1  49   3
M  END
$$$$

     RDKit          3D

125133  0  0  0  0  0  0  0  0999 V2000
   -9.9908   -4.7945    3.7717 C   0  0  0  0  0  0  0  0  0  0  0  0
   -8.6196   -4.3042    3.8839 N   0  0  0  0  0  0  0  0  0  0  0  0
   -7.6586   -5.2835    3.3412 C   0  0  0  0  0  0  0  0  0  0  0  0
   -7.8368   -5.5127    1.8339 C   0  0  0  0  0  0  0  0  0  0  0  0
   -8.2597   -6.6032    1.4327 O   0  0  0  0  0  0  0  0  0  0  0  0
   -7.5111   -4.4751    0.9624 N   0  0  0  0  0  0  0  0  0  0  0  0
   -7.7544   -4.6531   -0.4683 C   0  0  0  0  0  0  0  0  0  0  0  0
   -8.2823   -3.3686   -1.0994 C   0  0  0  0  0  0  0  0  0  0  0  0
   -7.2431   -2.2349   -0.9713 C   0  0  0  0  0  0  0  0  0  0  0  0
   -7.8281   -0.8303   -1.1063 C   0  0  0  0  0  0  0  0  0  0  0  0
   -8.9733   -0.4867   -0.3570 C   0  0  0  0  0  0  0  0  0  0  0  0
   -9.5405    0.7846   -0.4304 C   0  0  0  0  0  0  0  0  0  0  0  0
   -8.9684    1.7477   -1.2464 C   0  0  0  0  0  0  0  0  0  0  0  0
   -7.8187    1.4449   -1.9746 C   0  0  0  0  0  0  0  0  0  0  0  0
   -7.2170    0.1706   -1.9108 C   0  0  0  0  0  0  0  0  0  0  0  0
   -5.9298   -0.1000   -2.6916 C   0  0  1  0  0  0  0  0  0  0  0  0
   -6.2245   -0.7695   -4.0493 C   0  0  0  0  0  0  0  0  0  0  0  0
   -6.1864    0.3792   -5.0427 C   0  0  0  0  0  0  0  0  0  0  0  0
   -5.0499    1.2401   -4.5055 C   0  0  0  0  0  0  0  0  0  0  0  0
   -5.1802    1.1276   -3.0480 N   0  0  0  0  0  0  0  0  0  0  0  0
   -4.2006    1.6440   -2.2033 C   0  0  0  0  0  0  0  0  0  0  0  0
   -3.1643    2.4688   -2.6674 C   0  0  0  0  0  0  0  0  0  0  0  0
   -2.1663    2.9718   -1.8134 C   0  0  0  0  0  0  0  0  0  0  0  0
   -2.1711    2.6857   -0.4437 C   0  0  0  0  0  0  0  0  0  0  0  0
   -1.1086    3.1695    0.4543 C   0  0  0  0  0  0  0  0  0  0  0  0
   -1.4107    3.7573    1.6881 C   0  0  0  0  0  0  0  0  0  0  0  0
   -0.3972    4.1438    2.5716 C   0  0  0  0  0  0  0  0  0  0  0  0
    0.9568    3.9722    2.2432 C   0  0  0  0  0  0  0  0  0  0  0  0
    1.9671    4.3177    3.2993 C   0  0  0  0  0  0  0  0  0  0  0  0
    1.5767    4.8725    4.3263 O   0  0  0  0  0  0  0  0  0  0  0  0
    3.2597    3.9292    3.0625 N   0  0  0  0  0  0  0  0  0  0  0  0
    4.3856    3.9620    4.2813 S   0  0  0  0  0  0  0  0  0  0  0  0
    5.2657    5.1641    4.1192 O   0  0  0  0  0  0  0  0  0  0  0  0
    5.2920    2.5648    3.5578 C   0  0  0  0  0  0  0  0  0  0  0  0
    5.1272    1.2955    4.1289 C   0  0  0  0  0  0  0  0  0  0  0  0
    5.6551    0.1755    3.4910 C   0  0  0  0  0  0  0  0  0  0  0  0
    6.3194    0.3218    2.2678 C   0  0  0  0  0  0  0  0  0  0  0  0
    6.8712   -0.8334    1.6116 N   0  0  0  0  0  0  0  0  0  0  0  0
    8.1963   -1.1062    2.1591 C   0  0  0  0  0  0  0  0  0  0  0  0
    9.0724   -1.9858    1.2433 C   0  0  1  0  0  0  0  0  0  0  0  0
    8.3318   -3.1200    0.5080 C   0  0  0  0  0  0  0  0  0  0  0  0
    8.9083   -3.4296   -0.8795 C   0  0  0  0  0  0  0  0  0  0  0  0
   10.4402   -3.3400   -0.9429 C   0  0  2  0  0  0  0  0  0  0  0  0
   10.9395   -3.5787   -2.3712 C   0  0  0  0  0  0  0  0  0  0  0  0
   10.9990   -4.4091   -0.1546 O   0  0  0  0  0  0  0  0  0  0  0  0
   10.9808   -1.9967   -0.4084 C   0  0  0  0  0  0  0  0  0  0  0  0
    9.9121   -1.1458    0.2774 C   0  0  0  0  0  0  0  0  0  0  0  0
    6.5282    1.5992    1.6719 C   0  0  0  0  0  0  0  0  0  0  0  0
    7.2075    1.8340    0.5153 N   0  0  0  0  0  2  0  0  0  0  0  0
    7.0210    0.8386   -0.5003 O   0  0  0  0  0  0  0  0  0  0  0  0
    6.0194    2.7108    2.3684 C   0  0  0  0  0  0  0  0  0  0  0  0
    1.2668    3.4568    0.9806 C   0  0  0  0  0  0  0  0  0  0  0  0
    2.5769    3.2752    0.6143 O   0  0  0  0  0  0  0  0  0  0  0  0
    3.0275    3.8468   -0.5552 C   0  0  0  0  0  0  0  0  0  0  0  0
    2.4794    4.9713   -1.1751 C   0  0  0  0  0  0  0  0  0  0  0  0
    2.9042    5.5547   -2.3329 N   0  0  0  0  0  0  0  0  0  0  0  0
    3.9990    4.9382   -2.8285 C   0  0  0  0  0  0  0  0  0  0  0  0
    4.6708    5.3217   -3.9631 N   0  0  0  0  0  0  0  0  0  0  0  0
    5.7518    4.5042   -4.1761 C   0  0  0  0  0  0  0  0  0  0  0  0
    5.7789    3.5780   -3.1491 C   0  0  0  0  0  0  0  0  0  0  0  0
    4.6663    3.8370   -2.3010 C   0  0  0  0  0  0  0  0  0  0  0  0
    4.1597    3.2647   -1.1216 C   0  0  0  0  0  0  0  0  0  0  0  0
    0.2459    3.0265    0.1175 C   0  0  0  0  0  0  0  0  0  0  0  0
   -3.2228    1.9009    0.0380 C   0  0  0  0  0  0  0  0  0  0  0  0
   -4.2144    1.4012   -0.8213 C   0  0  0  0  0  0  0  0  0  0  0  0
   -6.3805   -2.3628    0.3004 C   0  0  0  0  0  0  0  0  0  0  0  0
   -7.0787   -3.1494    1.4073 C   0  0  0  0  0  0  0  0  0  0  0  0
  -10.3052   -4.8802    2.7266 H   0  0  0  0  0  0  0  0  0  0  0  0
  -10.1195   -5.7650    4.2657 H   0  0  0  0  0  0  0  0  0  0  0  0
  -10.6651   -4.0820    4.2597 H   0  0  0  0  0  0  0  0  0  0  0  0
   -8.4010   -4.1649    4.8700 H   0  0  0  0  0  0  0  0  0  0  0  0
   -6.6333   -4.9482    3.5323 H   0  0  0  0  0  0  0  0  0  0  0  0
   -7.7630   -6.2479    3.8557 H   0  0  0  0  0  0  0  0  0  0  0  0
   -8.4656   -5.4632   -0.6421 H   0  0  0  0  0  0  0  0  0  0  0  0
   -6.8065   -4.9469   -0.9267 H   0  0  0  0  0  0  0  0  0  0  0  0
   -9.2372   -3.1211   -0.6201 H   0  0  0  0  0  0  0  0  0  0  0  0
   -8.5095   -3.5340   -2.1595 H   0  0  0  0  0  0  0  0  0  0  0  0
   -6.5654   -2.4024   -1.8158 H   0  0  0  0  0  0  0  0  0  0  0  0
   -9.4372   -1.2046    0.3144 H   0  0  0  0  0  0  0  0  0  0  0  0
  -10.4230    1.0220    0.1582 H   0  0  0  0  0  0  0  0  0  0  0  0
   -9.3968    2.7436   -1.3025 H   0  0  0  0  0  0  0  0  0  0  0  0
   -7.3695    2.2293   -2.5825 H   0  0  0  0  0  0  0  0  0  0  0  0
   -5.2762   -0.7623   -2.1117 H   0  0  0  0  0  0  0  0  0  0  0  0
   -7.1698   -1.3269   -4.0855 H   0  0  0  0  0  0  0  0  0  0  0  0
   -5.4131   -1.4736   -4.2891 H   0  0  0  0  0  0  0  0  0  0  0  0
   -7.1346    0.9327   -5.0209 H   0  0  0  0  0  0  0  0  0  0  0  0
   -6.0055    0.0415   -6.0699 H   0  0  0  0  0  0  0  0  0  0  0  0
   -4.0906    0.8307   -4.8446 H   0  0  0  0  0  0  0  0  0  0  0  0
   -5.1496    2.2769   -4.8511 H   0  0  0  0  0  0  0  0  0  0  0  0
   -3.0928    2.7341   -3.7171 H   0  0  0  0  0  0  0  0  0  0  0  0
   -1.3805    3.5953   -2.2393 H   0  0  0  0  0  0  0  0  0  0  0  0
   -2.4468    3.9072    1.9835 H   0  0  0  0  0  0  0  0  0  0  0  0
   -0.6750    4.5602    3.5374 H   0  0  0  0  0  0  0  0  0  0  0  0
    3.4980    3.3620    2.2496 H   0  0  0  0  0  0  0  0  0  0  0  0
    4.5668    1.1669    5.0471 H   0  0  0  0  0  0  0  0  0  0  0  0
    5.5274   -0.8204    3.9025 H   0  0  0  0  0  0  0  0  0  0  0  0
    7.0140   -0.3187    0.6485 H   0  0  0  0  0  0  0  0  0  0  0  0
    8.0618   -1.6293    3.1134 H   0  0  0  0  0  0  0  0  0  0  0  0
    8.7531   -0.1866    2.3860 H   0  0  0  0  0  0  0  0  0  0  0  0
    9.7999   -2.4629    1.9181 H   0  0  0  0  0  0  0  0  0  0  0  0
    8.3730   -4.0277    1.1302 H   0  0  0  0  0  0  0  0  0  0  0  0
    7.2612   -2.9032    0.3860 H   0  0  0  0  0  0  0  0  0  0  0  0
    8.4694   -2.7290   -1.6004 H   0  0  0  0  0  0  0  0  0  0  0  0
    8.5743   -4.4328   -1.1719 H   0  0  0  0  0  0  0  0  0  0  0  0
   10.5980   -2.7925   -3.0559 H   0  0  0  0  0  0  0  0  0  0  0  0
   12.0377   -3.6104   -2.4007 H   0  0  0  0  0  0  0  0  0  0  0  0
   10.5981   -4.5509   -2.7513 H   0  0  0  0  0  0  0  0  0  0  0  0
   10.6195   -4.3164    0.7349 H   0  0  0  0  0  0  0  0  0  0  0  0
   11.4101   -1.3958   -1.2159 H   0  0  0  0  0  0  0  0  0  0  0  0
   11.7970   -2.1797    0.3029 H   0  0  0  0  0  0  0  0  0  0  0  0
   10.4031   -0.3247    0.8033 H   0  0  0  0  0  0  0  0  0  0  0  0
    9.2753   -0.6915   -0.4880 H   0  0  0  0  0  0  0  0  0  0  0  0
    6.1533    3.6968    1.9235 H   0  0  0  0  0  0  0  0  0  0  0  0
    1.6208    5.4765   -0.7390 H   0  0  0  0  0  0  0  0  0  0  0  0
    4.3985    6.1140   -4.5261 H   0  0  0  0  0  0  0  0  0  0  0  0
    6.4184    4.6534   -5.0149 H   0  0  0  0  0  0  0  0  0  0  0  0
    6.5158    2.7939   -2.9780 H   0  0  0  0  0  0  0  0  0  0  0  0
    4.6646    2.4069   -0.6676 H   0  0  0  0  0  0  0  0  0  0  0  0
    0.5253    2.5446   -0.8172 H   0  0  0  0  0  0  0  0  0  0  0  0
   -3.2757    1.6468    1.0925 H   0  0  0  0  0  0  0  0  0  0  0  0
   -5.0062    0.8103   -0.3677 H   0  0  0  0  0  0  0  0  0  0  0  0
   -5.4579   -2.9002    0.0372 H   0  0  0  0  0  0  0  0  0  0  0  0
   -6.0611   -1.3859    0.6766 H   0  0  0  0  0  0  0  0  0  0  0  0
   -7.9724   -2.6133    1.7531 H   0  0  0  0  0  0  0  0  0  0  0  0
   -6.4003   -3.2475    2.2582 H   0  0  0  0  0  0  0  0  0  0  0  0
  1  2  1  0
  2  3  1  0
  3  4  1  0
  4  5  2  0
  4  6  1  0
  6  7  1  0
  7  8  1  0
  8  9  1  0
  9 10  1  0
 10 11  2  0
 11 12  1  0
 12 13  2  0
 13 14  1  0
 14 15  2  0
 15 16  1  0
 16 17  1  0
 17 18  1  0
 18 19  1  0
 19 20  1  0
 20 21  1  0
 21 22  2  0
 22 23  1  0
 23 24  2  0
 24 25  1  0
 25 26  2  0
 26 27  1  0
 27 28  2  0
 28 29  1  0
 29 30  2  0
 29 31  1  0
 31 32  1  0
 32 33  2  0
 32 34  1  0
 34 35  2  0
 35 36  1  0
 36 37  2  0
 37 38  1  0
 38 39  1  0
 39 40  1  0
 40 41  1  0
 41 42  1  0
 42 43  1  0
 43 44  1  0
 43 45  1  1
 43 46  1  0
 46 47  1  0
 37 48  1  0
 48 49  1  0
 49 50  1  0
 48 51  2  0
 28 52  1  0
 52 53  1  0
 53 54  1  0
 54 55  2  0
 55 56  1  0
 56 57  2  0
 57 58  1  0
 58 59  1  0
 59 60  2  0
 60 61  1  0
 61 62  2  0
 52 63  2  0
 24 64  1  0
 64 65  2  0
  9 66  1  0
 66 67  1  0
 67  6  1  0
 15 10  1  0
 20 16  1  0
 65 21  1  0
 63 25  1  0
 51 34  1  0
 62 54  1  0
 47 40  1  0
 61 57  1  0
  1 68  1  0
  1 69  1  0
  1 70  1  0
  2 71  1  0
  3 72  1  0
  3 73  1  0
  7 74  1  0
  7 75  1  0
  8 76  1  0
  8 77  1  0
  9 78  1  0
 11 79  1  0
 12 80  1  0
 13 81  1  0
 14 82  1  0
 16 83  1  1
 17 84  1  0
 17 85  1  0
 18 86  1  0
 18 87  1  0
 19 88  1  0
 19 89  1  0
 22 90  1  0
 23 91  1  0
 26 92  1  0
 27 93  1  0
 31 94  1  0
 35 95  1  0
 36 96  1  0
 38 97  1  0
 39 98  1  0
 39 99  1  0
 40100  1  1
 41101  1  0
 41102  1  0
 42103  1  0
 42104  1  0
 44105  1  0
 44106  1  0
 44107  1  0
 45108  1  0
 46109  1  0
 46110  1  0
 47111  1  0
 47112  1  0
 51113  1  0
 55114  1  0
 58115  1  0
 59116  1  0
 60117  1  0
 62118  1  0
 63119  1  0
 64120  1  0
 65121  1  0
 66122  1  0
 66123  1  0
 67124  1  0
 67125  1  0
M  CHG  2  49   1  50  -1
M  RAD  1  49   3
M  END
$$$$

     RDKit          3D

125133  0  0  0  0  0  0  0  0999 V2000
   -9.3293   -7.5619   -1.8006 C   0  0  0  0  0  0  0  0  0  0  0  0
   -9.0479   -7.5079   -0.3701 N   0  0  0  0  0  0  0  0  0  0  0  0
   -9.0895   -6.1168    0.1300 C   0  0  0  0  0  0  0  0  0  0  0  0
   -7.7942   -5.3500   -0.2051 C   0  0  0  0  0  0  0  0  0  0  0  0
   -6.8064   -5.9463   -0.6435 O   0  0  0  0  0  0  0  0  0  0  0  0
   -7.8005   -3.9661    0.0031 N   0  0  0  0  0  0  0  0  0  0  0  0
   -6.5453   -3.2546   -0.2303 C   0  0  0  0  0  0  0  0  0  0  0  0
   -6.7908   -1.8278   -0.6993 C   0  0  0  0  0  0  0  0  0  0  0  0
   -7.7034   -1.0316    0.2438 C   0  0  0  0  0  0  0  0  0  0  0  0
   -6.9254   -0.3730    1.3872 C   0  0  0  0  0  0  0  0  0  0  0  0
   -6.6576   -1.0875    2.5694 C   0  0  0  0  0  0  0  0  0  0  0  0
   -5.9345   -0.5252    3.6223 C   0  0  0  0  0  0  0  0  0  0  0  0
   -5.4562    0.7701    3.5189 C   0  0  0  0  0  0  0  0  0  0  0  0
   -5.6913    1.4989    2.3570 C   0  0  0  0  0  0  0  0  0  0  0  0
   -6.4104    0.9527    1.2719 C   0  0  0  0  0  0  0  0  0  0  0  0
   -6.6220    1.7978    0.0106 C   0  0  1  0  0  0  0  0  0  0  0  0
   -8.0048    2.4839    0.0270 C   0  0  0  0  0  0  0  0  0  0  0  0
   -7.7178    3.8738    0.5661 C   0  0  0  0  0  0  0  0  0  0  0  0
   -6.3843    4.2080   -0.0862 C   0  0  0  0  0  0  0  0  0  0  0  0
   -5.6750    2.9273   -0.1242 N   0  0  0  0  0  0  0  0  0  0  0  0
   -4.4522    2.7968   -0.7672 C   0  0  0  0  0  0  0  0  0  0  0  0
   -3.8150    1.5544   -0.9047 C   0  0  0  0  0  0  0  0  0  0  0  0
   -2.5828    1.4140   -1.5596 C   0  0  0  0  0  0  0  0  0  0  0  0
   -1.9304    2.5221   -2.1050 C   0  0  0  0  0  0  0  0  0  0  0  0
   -0.6658    2.3734   -2.8297 C   0  0  0  0  0  0  0  0  0  0  0  0
   -0.6315    2.4957   -4.2233 C   0  0  0  0  0  0  0  0  0  0  0  0
    0.5703    2.3583   -4.9203 C   0  0  0  0  0  0  0  0  0  0  0  0
    1.7687    2.0856   -4.2418 C   0  0  0  0  0  0  0  0  0  0  0  0
    3.0064    1.9928   -5.0832 C   0  0  0  0  0  0  0  0  0  0  0  0
    2.8845    1.7292   -6.2785 O   0  0  0  0  0  0  0  0  0  0  0  0
    4.1919    2.2090   -4.4379 N   0  0  0  0  0  0  0  0  0  0  0  0
    5.6157    2.3391   -5.2687 S   0  0  0  0  0  0  0  0  0  0  0  0
    5.7267    3.7062   -5.8765 O   0  0  0  0  0  0  0  0  0  0  0  0
    6.6035    2.3593   -3.7510 C   0  0  0  0  0  0  0  0  0  0  0  0
    7.4577    1.2847   -3.5007 C   0  0  0  0  0  0  0  0  0  0  0  0
    8.0841    1.1781   -2.2631 C   0  0  0  0  0  0  0  0  0  0  0  0
    7.8117    2.1096   -1.2526 C   0  0  0  0  0  0  0  0  0  0  0  0
    8.3900    1.9463    0.0519 N   0  0  0  0  0  0  0  0  0  0  0  0
    7.6774    0.9190    0.8201 C   0  0  0  0  0  0  0  0  0  0  0  0
    8.3836   -0.4500    0.7914 C   0  0  1  0  0  0  0  0  0  0  0  0
    9.8804   -0.3335    1.1426 C   0  0  0  0  0  0  0  0  0  0  0  0
   10.4293   -1.6503    1.6793 C   0  0  0  0  0  0  0  0  0  0  0  0
    9.7408   -2.0606    2.9955 C   0  0  2  0  0  0  0  0  0  0  0  0
   10.5458   -1.5968    4.2121 C   0  0  0  0  0  0  0  0  0  0  0  0
    9.7216   -3.4971    3.0525 O   0  0  0  0  0  0  0  0  0  0  0  0
    8.2930   -1.5421    3.0907 C   0  0  0  0  0  0  0  0  0  0  0  0
    7.6428   -1.4459    1.7115 C   0  0  0  0  0  0  0  0  0  0  0  0
    6.9695    3.2349   -1.4831 C   0  0  0  0  0  0  0  0  0  0  0  0
    6.6684    4.2254   -0.5963 N   0  0  0  0  0  2  0  0  0  0  0  0
    6.6351    3.8444    0.7793 O   0  0  0  0  0  0  0  0  0  0  0  0
    6.4188    3.3482   -2.7719 C   0  0  0  0  0  0  0  0  0  0  0  0
    1.7419    1.9246   -2.8451 C   0  0  0  0  0  0  0  0  0  0  0  0
    2.9331    1.6455   -2.2069 O   0  0  0  0  0  0  0  0  0  0  0  0
    2.9263    1.0071   -0.9941 C   0  0  0  0  0  0  0  0  0  0  0  0
    2.2717   -0.2052   -0.7707 C   0  0  0  0  0  0  0  0  0  0  0  0
    2.2416   -0.9029    0.3982 N   0  0  0  0  0  0  0  0  0  0  0  0
    2.9774   -0.2999    1.3569 C   0  0  0  0  0  0  0  0  0  0  0  0
    3.1484   -0.7813    2.6270 N   0  0  0  0  0  0  0  0  0  0  0  0
    3.9618    0.0572    3.3463 C   0  0  0  0  0  0  0  0  0  0  0  0
    4.3283    1.0953    2.5142 C   0  0  0  0  0  0  0  0  0  0  0  0
    3.7013    0.8829    1.2568 C   0  0  0  0  0  0  0  0  0  0  0  0
    3.6878    1.5618    0.0297 C   0  0  0  0  0  0  0  0  0  0  0  0
    0.5330    2.1048   -2.1492 C   0  0  0  0  0  0  0  0  0  0  0  0
   -2.5286    3.7729   -1.9470 C   0  0  0  0  0  0  0  0  0  0  0  0
   -3.7565    3.9038   -1.2804 C   0  0  0  0  0  0  0  0  0  0  0  0
   -8.9524   -1.8453    0.6370 C   0  0  0  0  0  0  0  0  0  0  0  0
   -8.7261   -3.3254    0.9309 C   0  0  0  0  0  0  0  0  0  0  0  0
  -10.3419   -7.2060   -2.0149 H   0  0  0  0  0  0  0  0  0  0  0  0
   -8.6145   -6.9765   -2.3861 H   0  0  0  0  0  0  0  0  0  0  0  0
   -9.2675   -8.5997   -2.1416 H   0  0  0  0  0  0  0  0  0  0  0  0
   -8.0862   -7.8366   -0.2316 H   0  0  0  0  0  0  0  0  0  0  0  0
   -9.9637   -5.5988   -0.2761 H   0  0  0  0  0  0  0  0  0  0  0  0
   -9.1762   -6.1559    1.2207 H   0  0  0  0  0  0  0  0  0  0  0  0
   -5.9662   -3.2795    0.6993 H   0  0  0  0  0  0  0  0  0  0  0  0
   -5.9510   -3.7741   -0.9902 H   0  0  0  0  0  0  0  0  0  0  0  0
   -7.2759   -1.8740   -1.6846 H   0  0  0  0  0  0  0  0  0  0  0  0
   -5.8323   -1.3176   -0.8499 H   0  0  0  0  0  0  0  0  0  0  0  0
   -8.1207   -0.2117   -0.3507 H   0  0  0  0  0  0  0  0  0  0  0  0
   -6.9877   -2.1107    2.6988 H   0  0  0  0  0  0  0  0  0  0  0  0
   -5.7347   -1.1065    4.5189 H   0  0  0  0  0  0  0  0  0  0  0  0
   -4.8794    1.2115    4.3275 H   0  0  0  0  0  0  0  0  0  0  0  0
   -5.2783    2.5049    2.2907 H   0  0  0  0  0  0  0  0  0  0  0  0
   -6.5538    1.1627   -0.8804 H   0  0  0  0  0  0  0  0  0  0  0  0
   -8.7638    1.9595    0.6156 H   0  0  0  0  0  0  0  0  0  0  0  0
   -8.3807    2.5696   -1.0014 H   0  0  0  0  0  0  0  0  0  0  0  0
   -8.4994    4.5958    0.3123 H   0  0  0  0  0  0  0  0  0  0  0  0
   -7.6177    3.8464    1.6571 H   0  0  0  0  0  0  0  0  0  0  0  0
   -6.5554    4.5860   -1.1023 H   0  0  0  0  0  0  0  0  0  0  0  0
   -5.8482    4.9639    0.4987 H   0  0  0  0  0  0  0  0  0  0  0  0
   -4.2550    0.6550   -0.4844 H   0  0  0  0  0  0  0  0  0  0  0  0
   -2.1362    0.4255   -1.6382 H   0  0  0  0  0  0  0  0  0  0  0  0
   -1.5430    2.7139   -4.7749 H   0  0  0  0  0  0  0  0  0  0  0  0
    0.5732    2.4850   -6.0016 H   0  0  0  0  0  0  0  0  0  0  0  0
    4.2302    2.3589   -3.4313 H   0  0  0  0  0  0  0  0  0  0  0  0
    7.6259    0.5183   -4.2475 H   0  0  0  0  0  0  0  0  0  0  0  0
    8.7674    0.3645   -2.0615 H   0  0  0  0  0  0  0  0  0  0  0  0
    7.9235    2.8603    0.4505 H   0  0  0  0  0  0  0  0  0  0  0  0
    7.6297    1.2561    1.8631 H   0  0  0  0  0  0  0  0  0  0  0  0
    6.6398    0.8030    0.4819 H   0  0  0  0  0  0  0  0  0  0  0  0
    8.3057   -0.8530   -0.2255 H   0  0  0  0  0  0  0  0  0  0  0  0
   10.0472    0.4584    1.8814 H   0  0  0  0  0  0  0  0  0  0  0  0
   10.4421   -0.0480    0.2462 H   0  0  0  0  0  0  0  0  0  0  0  0
   10.2920   -2.4285    0.9179 H   0  0  0  0  0  0  0  0  0  0  0  0
   11.5135   -1.5730    1.8202 H   0  0  0  0  0  0  0  0  0  0  0  0
   11.5258   -2.0844    4.2369 H   0  0  0  0  0  0  0  0  0  0  0  0
   10.6928   -0.5119    4.2133 H   0  0  0  0  0  0  0  0  0  0  0  0
   10.0408   -1.8785    5.1427 H   0  0  0  0  0  0  0  0  0  0  0  0
    9.1359   -3.7943    2.3370 H   0  0  0  0  0  0  0  0  0  0  0  0
    7.6932   -2.2059    3.7252 H   0  0  0  0  0  0  0  0  0  0  0  0
    8.2702   -0.5490    3.5547 H   0  0  0  0  0  0  0  0  0  0  0  0
    7.6476   -2.4382    1.2445 H   0  0  0  0  0  0  0  0  0  0  0  0
    6.5883   -1.1699    1.8167 H   0  0  0  0  0  0  0  0  0  0  0  0
    5.7801    4.2038   -2.9734 H   0  0  0  0  0  0  0  0  0  0  0  0
    1.7201   -0.6786   -1.5766 H   0  0  0  0  0  0  0  0  0  0  0  0
    2.7358   -1.6392    2.9547 H   0  0  0  0  0  0  0  0  0  0  0  0
    4.2261   -0.1543    4.3727 H   0  0  0  0  0  0  0  0  0  0  0  0
    4.9896    1.9274    2.7436 H   0  0  0  0  0  0  0  0  0  0  0  0
    4.2769    2.4720   -0.1054 H   0  0  0  0  0  0  0  0  0  0  0  0
    0.5175    2.0556   -1.0589 H   0  0  0  0  0  0  0  0  0  0  0  0
   -2.0342    4.6639   -2.3300 H   0  0  0  0  0  0  0  0  0  0  0  0
   -4.1538    4.9088   -1.1772 H   0  0  0  0  0  0  0  0  0  0  0  0
   -9.6409   -1.8028   -0.2185 H   0  0  0  0  0  0  0  0  0  0  0  0
   -9.4835   -1.3733    1.4714 H   0  0  0  0  0  0  0  0  0  0  0  0
   -8.3341   -3.4859    1.9386 H   0  0  0  0  0  0  0  0  0  0  0  0
   -9.6978   -3.8243    0.9124 H   0  0  0  0  0  0  0  0  0  0  0  0
  1  2  1  0
  2  3  1  0
  3  4  1  0
  4  5  2  0
  4  6  1  0
  6  7  1  0
  7  8  1  0
  8  9  1  0
  9 10  1  0
 10 11  2  0
 11 12  1  0
 12 13  2  0
 13 14  1  0
 14 15  2  0
 15 16  1  0
 16 17  1  0
 17 18  1  0
 18 19  1  0
 19 20  1  0
 20 21  1  0
 21 22  2  0
 22 23  1  0
 23 24  2  0
 24 25  1  0
 25 26  2  0
 26 27  1  0
 27 28  2  0
 28 29  1  0
 29 30  2  0
 29 31  1  0
 31 32  1  0
 32 33  2  0
 32 34  1  0
 34 35  2  0
 35 36  1  0
 36 37  2  0
 37 38  1  0
 38 39  1  0
 39 40  1  0
 40 41  1  0
 41 42  1  0
 42 43  1  0
 43 44  1  0
 43 45  1  6
 43 46  1  0
 46 47  1  0
 37 48  1  0
 48 49  1  0
 49 50  1  0
 48 51  2  0
 28 52  1  0
 52 53  1  0
 53 54  1  0
 54 55  2  0
 55 56  1  0
 56 57  2  0
 57 58  1  0
 58 59  1  0
 59 60  2  0
 60 61  1  0
 61 62  2  0
 52 63  2  0
 24 64  1  0
 64 65  2  0
  9 66  1  0
 66 67  1  0
 67  6  1  0
 15 10  1  0
 20 16  1  0
 65 21  1  0
 63 25  1  0
 51 34  1  0
 62 54  1  0
 47 40  1  0
 61 57  1  0
  1 68  1  0
  1 69  1  0
  1 70  1  0
  2 71  1  0
  3 72  1  0
  3 73  1  0
  7 74  1  0
  7 75  1  0
  8 76  1  0
  8 77  1  0
  9 78  1  0
 11 79  1  0
 12 80  1  0
 13 81  1  0
 14 82  1  0
 16 83  1  6
 17 84  1  0
 17 85  1  0
 18 86  1  0
 18 87  1  0
 19 88  1  0
 19 89  1  0
 22 90  1  0
 23 91  1  0
 26 92  1  0
 27 93  1  0
 31 94  1  0
 35 95  1  0
 36 96  1  0
 38 97  1  0
 39 98  1  0
 39 99  1  0
 40100  1  6
 41101  1  0
 41102  1  0
 42103  1  0
 42104  1  0
 44105  1  0
 44106  1  0
 44107  1  0
 45108  1  0
 46109  1  0
 46110  1  0
 47111  1  0
 47112  1  0
 51113  1  0
 55114  1  0
 58115  1  0
 59116  1  0
 60117  1  0
 62118  1  0
 63119  1  0
 64120  1  0
 65121  1  0
 66122  1  0
 66123  1  0
 67124  1  0
 67125  1  0
M  CHG  2  49   1  50  -1
M  RAD  1  49   3
M  END
$$$$
