
     RDKit          3D

124133  0  0  0  0  0  0  0  0999 V2000
   -9.6384   -0.5211   -3.2331 C   0  0  0  0  0  0  0  0  0  0  0  0
   -9.0042   -0.8457   -1.9623 N   0  0  0  0  0  0  0  0  0  0  0  0
   -9.4778   -2.1207   -1.4140 C   0  0  0  0  0  0  0  0  0  0  0  0
   -8.7877   -2.5043   -0.0728 C   0  0  0  0  0  0  0  0  0  0  0  0
   -8.3818   -1.3847    0.8016 N   0  0  0  0  0  0  0  0  0  0  0  0
   -6.9541   -1.0275    0.8218 C   0  0  0  0  0  0  0  0  0  0  0  0
   -6.1322   -2.1533    1.4869 C   0  0  0  0  0  0  0  0  0  0  0  0
   -5.0244   -1.9094    0.4090 C   0  0  0  0  0  0  0  0  0  0  0  0
   -3.9184   -0.9613    0.9024 C   0  0  0  0  0  0  0  0  0  0  0  0
   -2.9379   -0.6117   -0.2216 C   0  0  0  0  0  0  0  0  0  0  0  0
   -2.3113   -1.8349   -0.7539 N   0  0  0  0  0  0  0  0  0  0  0  0
   -1.0312   -1.7031   -1.3410 C   0  0  0  0  0  0  0  0  0  0  0  0
   -0.1861   -2.8257   -1.4123 C   0  0  0  0  0  0  0  0  0  0  0  0
    1.0909   -2.7534   -1.9816 C   0  0  0  0  0  0  0  0  0  0  0  0
    1.5694   -1.5461   -2.5030 C   0  0  0  0  0  0  0  0  0  0  0  0
    2.9387   -1.5510   -3.0904 C   0  0  0  0  0  0  0  0  0  0  0  0
    3.7419   -2.4146   -2.7744 O   0  0  0  0  0  0  0  0  0  0  0  0
    3.2394   -0.5092   -3.9706 N   0  0  0  0  0  0  0  0  0  0  0  0
    4.7257   -0.2034   -4.6403 S   0  0  0  0  0  0  0  0  0  0  0  0
    5.2283   -1.3913   -5.2899 O   0  0  0  0  0  0  0  0  0  0  0  0
    4.5674    1.0365   -5.3722 O   0  0  0  0  0  0  0  0  0  0  0  0
    5.7323    0.1512   -3.2201 C   0  0  0  0  0  0  0  0  0  0  0  0
    6.4530   -0.8738   -2.6108 C   0  0  0  0  0  0  0  0  0  0  0  0
    7.2566   -0.6012   -1.4954 C   0  0  0  0  0  0  0  0  0  0  0  0
    7.3607    0.6892   -0.9491 C   0  0  0  0  0  0  0  0  0  0  0  0
    8.2263    0.9708    0.1152 N   0  0  0  0  0  0  0  0  0  0  0  0
    8.7407   -0.0630    1.0105 C   0  0  0  0  0  0  0  0  0  0  0  0
   10.1262   -0.5581    0.5432 C   0  0  1  0  0  0  0  0  0  0  0  0
   11.2031    0.5400    0.5967 C   0  0  0  0  0  0  0  0  0  0  0  0
   11.6251    0.9068    2.0222 C   0  0  0  0  0  0  0  0  0  0  0  0
   12.0331   -0.3142    2.8624 C   0  0  2  0  0  0  0  0  0  0  0  0
   12.2634    0.1007    4.3174 C   0  0  0  0  0  0  0  0  0  0  0  0
   13.2846   -0.8207    2.3903 O   0  0  0  0  0  0  0  0  0  0  0  0
   10.9795   -1.4311    2.7917 C   0  0  0  0  0  0  0  0  0  0  0  0
   10.5788   -1.7809    1.3565 C   0  0  0  0  0  0  0  0  0  0  0  0
    6.6621    1.7130   -1.6363 C   0  0  0  0  0  0  0  0  0  0  0  0
    6.7756    3.1042   -1.2009 N   0  0  0  0  0  0  0  0  0  0  0  0
    6.8322    3.9747   -2.0814 O   0  0  0  0  0  0  0  0  0  0  0  0
    6.7961    3.3312    0.0211 O   0  0  0  0  0  0  0  0  0  0  0  0
    5.8469    1.4586   -2.7543 C   0  0  0  0  0  0  0  0  0  0  0  0
    0.7474   -0.4152   -2.4162 C   0  0  0  0  0  0  0  0  0  0  0  0
    1.1298    0.8081   -2.9127 O   0  0  0  0  0  0  0  0  0  0  0  0
    1.7760    1.6816   -2.0634 C   0  0  0  0  0  0  0  0  0  0  0  0
    2.2241    1.4029   -0.7725 C   0  0  0  0  0  0  0  0  0  0  0  0
    2.9106    2.2548    0.0287 N   0  0  0  0  0  0  0  0  0  0  0  0
    3.1151    3.4575   -0.5377 C   0  0  0  0  0  0  0  0  0  0  0  0
    3.7790    4.4955    0.0576 N   0  0  0  0  0  0  0  0  0  0  0  0
    3.8171    5.5694   -0.7955 C   0  0  0  0  0  0  0  0  0  0  0  0
    3.1681    5.2111   -1.9584 C   0  0  0  0  0  0  0  0  0  0  0  0
    2.7200    3.8725   -1.8043 C   0  0  0  0  0  0  0  0  0  0  0  0
    2.0291    2.9468   -2.6010 C   0  0  0  0  0  0  0  0  0  0  0  0
   -0.5398   -0.4977   -1.8606 C   0  0  0  0  0  0  0  0  0  0  0  0
   -3.3644   -2.9042   -1.5442 S   0  0  0  0  0  0  0  0  0  0  0  0
   -4.4472   -3.2205   -0.1245 C   0  0  0  0  0  0  0  0  0  0  0  0
   -6.1460   -1.2518   -0.4704 C   0  0  0  0  0  0  0  0  0  0  0  0
   -9.2420   -0.2016    0.5201 C   0  0  1  0  0  0  0  0  0  0  0  0
   -9.1569    0.8948    1.5957 C   0  0  0  0  0  0  0  0  0  0  0  0
   -8.6295    2.1690    1.2948 C   0  0  0  0  0  0  0  0  0  0  0  0
   -8.5184    3.1605    2.2695 C   0  0  0  0  0  0  0  0  0  0  0  0
   -8.9231    2.8996    3.5685 C   0  0  0  0  0  0  0  0  0  0  0  0
   -9.4484    1.6491    3.8877 C   0  0  0  0  0  0  0  0  0  0  0  0
   -9.5983    0.6282    2.9247 C   0  0  0  0  0  0  0  0  0  0  0  0
  -10.1726   -0.7145    3.3477 C   0  0  0  0  0  0  0  0  0  0  0  0
  -11.5523   -1.1262    2.8826 C   0  0  0  0  0  0  0  0  0  0  0  0
  -11.3256   -0.8041    4.3251 C   0  0  0  0  0  0  0  0  0  0  0  0
   -9.1407    0.2541   -0.9795 C   0  0  0  0  0  0  0  0  0  0  0  0
  -10.7233   -0.4024   -3.1343 H   0  0  0  0  0  0  0  0  0  0  0  0
   -9.4446   -1.3066   -3.9718 H   0  0  0  0  0  0  0  0  0  0  0  0
   -9.2246    0.4067   -3.6431 H   0  0  0  0  0  0  0  0  0  0  0  0
   -9.2957   -2.9291   -2.1326 H   0  0  0  0  0  0  0  0  0  0  0  0
  -10.5637   -2.0756   -1.2535 H   0  0  0  0  0  0  0  0  0  0  0  0
   -9.5116   -3.1021    0.4971 H   0  0  0  0  0  0  0  0  0  0  0  0
   -7.9653   -3.1993   -0.2716 H   0  0  0  0  0  0  0  0  0  0  0  0
   -6.7283   -0.0633    1.2936 H   0  0  0  0  0  0  0  0  0  0  0  0
   -5.8395   -1.9545    2.5238 H   0  0  0  0  0  0  0  0  0  0  0  0
   -6.5682   -3.1591    1.4617 H   0  0  0  0  0  0  0  0  0  0  0  0
   -3.3713   -1.4365    1.7273 H   0  0  0  0  0  0  0  0  0  0  0  0
   -4.3438   -0.0327    1.3008 H   0  0  0  0  0  0  0  0  0  0  0  0
   -3.4407   -0.0520   -1.0207 H   0  0  0  0  0  0  0  0  0  0  0  0
   -2.1805    0.0486    0.2204 H   0  0  0  0  0  0  0  0  0  0  0  0
   -0.5263   -3.7793   -1.0103 H   0  0  0  0  0  0  0  0  0  0  0  0
    1.7030   -3.6538   -2.0162 H   0  0  0  0  0  0  0  0  0  0  0  0
    2.5453    0.1888   -4.2225 H   0  0  0  0  0  0  0  0  0  0  0  0
    6.3937   -1.8937   -2.9908 H   0  0  0  0  0  0  0  0  0  0  0  0
    7.8046   -1.4373   -1.0690 H   0  0  0  0  0  0  0  0  0  0  0  0
    7.9441    1.8141    0.6271 H   0  0  0  0  0  0  0  0  0  0  0  0
    8.8156    0.3723    2.0132 H   0  0  0  0  0  0  0  0  0  0  0  0
    8.0308   -0.8931    1.1082 H   0  0  0  0  0  0  0  0  0  0  0  0
   10.0400   -0.8755   -0.5039 H   0  0  0  0  0  0  0  0  0  0  0  0
   12.0843    0.1944    0.0413 H   0  0  0  0  0  0  0  0  0  0  0  0
   10.8605    1.4425    0.0772 H   0  0  0  0  0  0  0  0  0  0  0  0
   12.4651    1.6099    1.9573 H   0  0  0  0  0  0  0  0  0  0  0  0
   10.8017    1.4400    2.5124 H   0  0  0  0  0  0  0  0  0  0  0  0
   11.3528    0.5030    4.7733 H   0  0  0  0  0  0  0  0  0  0  0  0
   12.6034   -0.7516    4.9169 H   0  0  0  0  0  0  0  0  0  0  0  0
   13.0500    0.8611    4.3859 H   0  0  0  0  0  0  0  0  0  0  0  0
   13.2027   -1.0421    1.4485 H   0  0  0  0  0  0  0  0  0  0  0  0
   10.0837   -1.1369    3.3521 H   0  0  0  0  0  0  0  0  0  0  0  0
   11.3691   -2.3403    3.2669 H   0  0  0  0  0  0  0  0  0  0  0  0
    9.7843   -2.5367    1.3744 H   0  0  0  0  0  0  0  0  0  0  0  0
   11.4310   -2.2500    0.8490 H   0  0  0  0  0  0  0  0  0  0  0  0
    5.3196    2.2706   -3.2518 H   0  0  0  0  0  0  0  0  0  0  0  0
    2.0540    0.4363   -0.3057 H   0  0  0  0  0  0  0  0  0  0  0  0
    4.2025    4.4430    0.9732 H   0  0  0  0  0  0  0  0  0  0  0  0
    4.3164    6.4852   -0.5076 H   0  0  0  0  0  0  0  0  0  0  0  0
    3.0430    5.8434   -2.8281 H   0  0  0  0  0  0  0  0  0  0  0  0
    1.7065    3.2095   -3.6033 H   0  0  0  0  0  0  0  0  0  0  0  0
   -1.1573    0.3965   -1.8635 H   0  0  0  0  0  0  0  0  0  0  0  0
   -5.2413   -3.8999   -0.4522 H   0  0  0  0  0  0  0  0  0  0  0  0
   -3.8749   -3.7398    0.6526 H   0  0  0  0  0  0  0  0  0  0  0  0
   -5.8616   -0.3283   -0.9859 H   0  0  0  0  0  0  0  0  0  0  0  0
   -6.5465   -1.9315   -1.2272 H   0  0  0  0  0  0  0  0  0  0  0  0
  -10.2804   -0.5527    0.6080 H   0  0  0  0  0  0  0  0  0  0  0  0
   -8.2789    2.4174    0.2981 H   0  0  0  0  0  0  0  0  0  0  0  0
   -8.1052    4.1325    2.0129 H   0  0  0  0  0  0  0  0  0  0  0  0
   -8.8286    3.6622    4.3365 H   0  0  0  0  0  0  0  0  0  0  0  0
   -9.7471    1.4607    4.9171 H   0  0  0  0  0  0  0  0  0  0  0  0
   -9.4358   -1.5130    3.4276 H   0  0  0  0  0  0  0  0  0  0  0  0
  -11.6974   -2.1639    2.6061 H   0  0  0  0  0  0  0  0  0  0  0  0
  -12.1385   -0.4250    2.2997 H   0  0  0  0  0  0  0  0  0  0  0  0
  -11.3190   -1.6234    5.0349 H   0  0  0  0  0  0  0  0  0  0  0  0
  -11.7805    0.1027    4.7060 H   0  0  0  0  0  0  0  0  0  0  0  0
  -10.0266    0.8662   -1.1976 H   0  0  0  0  0  0  0  0  0  0  0  0
   -8.2642    0.8920   -1.1313 H   0  0  0  0  0  0  0  0  0  0  0  0
  1  2  1  0
  2  3  1  0
  3  4  1  0
  4  5  1  0
  5  6  1  0
  6  7  1  0
  7  8  1  0
  8  9  1  0
  9 10  1  0
 10 11  1  0
 11 12  1  0
 12 13  2  0
 13 14  1  0
 14 15  2  0
 15 16  1  0
 16 17  2  0
 16 18  1  0
 18 19  1  0
 19 20  2  0
 19 21  2  0
 19 22  1  0
 22 23  2  0
 23 24  1  0
 24 25  2  0
 25 26  1  0
 26 27  1  0
 27 28  1  0
 28 29  1  0
 29 30  1  0
 30 31  1  0
 31 32  1  0
 31 33  1  6
 31 34  1  0
 34 35  1  0
 25 36  1  0
 36 37  1  0
 37 38  2  0
 37 39  1  0
 36 40  2  0
 15 41  1  0
 41 42  1  0
 42 43  1  0
 43 44  2  0
 44 45  1  0
 45 46  2  0
 46 47  1  0
 47 48  1  0
 48 49  2  0
 49 50  1  0
 50 51  2  0
 41 52  2  0
 11 53  1  0
 53 54  1  0
  8 55  1  0
  5 56  1  0
 56 57  1  0
 57 58  2  0
 58 59  1  0
 59 60  2  0
 60 61  1  0
 61 62  2  0
 62 63  1  0
 63 64  1  0
 64 65  1  0
 56 66  1  0
 66  2  1  0
 55  6  1  0
 62 57  1  0
 65 63  1  0
 54  8  1  0
 52 12  1  0
 40 22  1  0
 51 43  1  0
 35 28  1  0
 50 46  1  0
  1 67  1  0
  1 68  1  0
  1 69  1  0
  3 70  1  0
  3 71  1  0
  4 72  1  0
  4 73  1  0
  6 74  1  0
  7 75  1  0
  7 76  1  0
  9 77  1  0
  9 78  1  0
 10 79  1  0
 10 80  1  0
 13 81  1  0
 14 82  1  0
 18 83  1  0
 23 84  1  0
 24 85  1  0
 26 86  1  0
 27 87  1  0
 27 88  1  0
 28 89  1  6
 29 90  1  0
 29 91  1  0
 30 92  1  0
 30 93  1  0
 32 94  1  0
 32 95  1  0
 32 96  1  0
 33 97  1  0
 34 98  1  0
 34 99  1  0
 35100  1  0
 35101  1  0
 40102  1  0
 44103  1  0
 47104  1  0
 48105  1  0
 49106  1  0
 51107  1  0
 52108  1  0
 54109  1  0
 54110  1  0
 55111  1  0
 55112  1  0
 56113  1  6
 58114  1  0
 59115  1  0
 60116  1  0
 61117  1  0
 63118  1  0
 64119  1  0
 64120  1  0
 65121  1  0
 65122  1  0
 66123  1  0
 66124  1  0
M  CHG  2  37   1  39  -1
M  END
$$$$

     RDKit          3D

124133  0  0  0  0  0  0  0  0999 V2000
  -11.7655   -1.0289   -1.8579 C   0  0  0  0  0  0  0  0  0  0  0  0
  -10.5704   -1.7984   -2.1859 N   0  0  0  0  0  0  0  0  0  0  0  0
   -9.8035   -1.1618   -3.2617 C   0  0  0  0  0  0  0  0  0  0  0  0
   -8.3042   -1.4995   -3.2206 C   0  0  0  0  0  0  0  0  0  0  0  0
   -7.6655   -0.9665   -2.0070 N   0  0  0  0  0  0  0  0  0  0  0  0
   -6.2156   -1.1867   -2.0716 C   0  0  0  0  0  0  0  0  0  0  0  0
   -5.7880   -2.6474   -1.8349 C   0  0  0  0  0  0  0  0  0  0  0  0
   -4.6062   -2.1079   -0.9594 C   0  0  0  0  0  0  0  0  0  0  0  0
   -3.2936   -1.9556   -1.7499 C   0  0  0  0  0  0  0  0  0  0  0  0
   -2.0716   -1.7442   -0.8451 C   0  0  0  0  0  0  0  0  0  0  0  0
   -2.4605   -1.0963    0.4117 N   0  0  0  0  0  0  0  0  0  0  0  0
   -1.5555   -0.1802    0.9882 C   0  0  0  0  0  0  0  0  0  0  0  0
   -2.0471    0.8667    1.7858 C   0  0  0  0  0  0  0  0  0  0  0  0
   -1.1922    1.8020    2.3810 C   0  0  0  0  0  0  0  0  0  0  0  0
    0.1951    1.7244    2.1988 C   0  0  0  0  0  0  0  0  0  0  0  0
    1.0240    2.7808    2.8616 C   0  0  0  0  0  0  0  0  0  0  0  0
    0.4984    3.7249    3.4285 O   0  0  0  0  0  0  0  0  0  0  0  0
    2.4097    2.6237    2.7708 N   0  0  0  0  0  0  0  0  0  0  0  0
    3.5154    3.7649    3.2620 S   0  0  0  0  0  0  0  0  0  0  0  0
    3.6858    3.6589    4.6926 O   0  0  0  0  0  0  0  0  0  0  0  0
    3.2694    5.0155    2.5826 O   0  0  0  0  0  0  0  0  0  0  0  0
    4.9805    3.0728    2.5130 C   0  0  0  0  0  0  0  0  0  0  0  0
    5.1341    3.1665    1.1298 C   0  0  0  0  0  0  0  0  0  0  0  0
    6.2294    2.5579    0.5077 C   0  0  0  0  0  0  0  0  0  0  0  0
    7.1872    1.8311    1.2367 C   0  0  0  0  0  0  0  0  0  0  0  0
    8.3103    1.2704    0.6041 N   0  0  0  0  0  0  0  0  0  0  0  0
    8.2460    0.9109   -0.8126 C   0  0  0  0  0  0  0  0  0  0  0  0
    9.5108    0.1553   -1.2706 C   0  0  1  0  0  0  0  0  0  0  0  0
   10.8140    0.9438   -1.0215 C   0  0  0  0  0  0  0  0  0  0  0  0
   11.6181    0.4031    0.1613 C   0  0  0  0  0  0  0  0  0  0  0  0
   11.9985   -1.0803   -0.0212 C   0  0  2  0  0  0  0  0  0  0  0  0
   12.2122   -1.7313    1.3480 C   0  0  0  0  0  0  0  0  0  0  0  0
   13.2562   -1.1583   -0.7023 O   0  0  0  0  0  0  0  0  0  0  0  0
   10.9650   -1.8641   -0.8536 C   0  0  0  0  0  0  0  0  0  0  0  0
    9.5636   -1.2803   -0.7140 C   0  0  0  0  0  0  0  0  0  0  0  0
    7.0342    1.8236    2.6470 C   0  0  0  0  0  0  0  0  0  0  0  0
    8.0114    1.1413    3.4984 N   0  0  0  0  0  0  0  0  0  0  0  0
    8.2341    1.6269    4.6159 O   0  0  0  0  0  0  0  0  0  0  0  0
    8.5328    0.1028    3.0604 O   0  0  0  0  0  0  0  0  0  0  0  0
    5.9360    2.4238    3.2892 C   0  0  0  0  0  0  0  0  0  0  0  0
    0.6960    0.6907    1.3916 C   0  0  0  0  0  0  0  0  0  0  0  0
    2.0524    0.5220    1.2043 O   0  0  0  0  0  0  0  0  0  0  0  0
    2.5408    0.7048   -0.0720 C   0  0  0  0  0  0  0  0  0  0  0  0
    3.6429   -0.0640   -0.4426 C   0  0  0  0  0  0  0  0  0  0  0  0
    4.3062    0.0133   -1.6219 N   0  0  0  0  0  0  0  0  0  0  0  0
    3.7886    0.9436   -2.4451 C   0  0  0  0  0  0  0  0  0  0  0  0
    4.2624    1.2196   -3.6986 N   0  0  0  0  0  0  0  0  0  0  0  0
    3.5246    2.2300   -4.2611 C   0  0  0  0  0  0  0  0  0  0  0  0
    2.5542    2.6014   -3.3536 C   0  0  0  0  0  0  0  0  0  0  0  0
    2.7088    1.7861   -2.2001 C   0  0  0  0  0  0  0  0  0  0  0  0
    2.0578    1.6694   -0.9602 C   0  0  0  0  0  0  0  0  0  0  0  0
   -0.1680   -0.2565    0.8120 C   0  0  0  0  0  0  0  0  0  0  0  0
   -3.3406   -2.0432    1.5076 S   0  0  0  0  0  0  0  0  0  0  0  0
   -4.4145   -2.9053    0.3256 C   0  0  0  0  0  0  0  0  0  0  0  0
   -5.4376   -0.7814   -0.8090 C   0  0  0  0  0  0  0  0  0  0  0  0
   -8.3977   -1.3230   -0.7617 C   0  0  1  0  0  0  0  0  0  0  0  0
   -8.6443   -0.0960    0.1355 C   0  0  0  0  0  0  0  0  0  0  0  0
   -9.0052    1.1345   -0.4540 C   0  0  0  0  0  0  0  0  0  0  0  0
   -9.2368    2.2720    0.3154 C   0  0  0  0  0  0  0  0  0  0  0  0
   -9.1025    2.2063    1.6928 C   0  0  0  0  0  0  0  0  0  0  0  0
   -8.7400    1.0015    2.2951 C   0  0  0  0  0  0  0  0  0  0  0  0
   -8.5173   -0.1776    1.5512 C   0  0  0  0  0  0  0  0  0  0  0  0
   -8.0807   -1.4414    2.2741 C   0  0  0  0  0  0  0  0  0  0  0  0
   -9.0325   -2.6053    2.4275 C   0  0  0  0  0  0  0  0  0  0  0  0
   -8.6400   -1.8096    3.6314 C   0  0  0  0  0  0  0  0  0  0  0  0
   -9.7488   -2.0960   -0.9962 C   0  0  0  0  0  0  0  0  0  0  0  0
  -11.5292   -0.0495   -1.4301 H   0  0  0  0  0  0  0  0  0  0  0  0
  -12.3907   -1.5748   -1.1426 H   0  0  0  0  0  0  0  0  0  0  0  0
  -12.3793   -0.8739   -2.7523 H   0  0  0  0  0  0  0  0  0  0  0  0
  -10.2157   -1.4935   -4.2222 H   0  0  0  0  0  0  0  0  0  0  0  0
   -9.9129   -0.0700   -3.2392 H   0  0  0  0  0  0  0  0  0  0  0  0
   -7.8366   -1.0520   -4.1066 H   0  0  0  0  0  0  0  0  0  0  0  0
   -8.1662   -2.5859   -3.2991 H   0  0  0  0  0  0  0  0  0  0  0  0
   -5.7587   -0.7576   -2.9744 H   0  0  0  0  0  0  0  0  0  0  0  0
   -6.4914   -3.2894   -1.2934 H   0  0  0  0  0  0  0  0  0  0  0  0
   -5.4977   -3.1879   -2.7427 H   0  0  0  0  0  0  0  0  0  0  0  0
   -3.1114   -2.8475   -2.3627 H   0  0  0  0  0  0  0  0  0  0  0  0
   -3.3701   -1.1165   -2.4528 H   0  0  0  0  0  0  0  0  0  0  0  0
   -1.5807   -2.7058   -0.6417 H   0  0  0  0  0  0  0  0  0  0  0  0
   -1.3537   -1.1422   -1.4170 H   0  0  0  0  0  0  0  0  0  0  0  0
   -3.1211    0.9638    1.9420 H   0  0  0  0  0  0  0  0  0  0  0  0
   -1.6282    2.5938    2.9897 H   0  0  0  0  0  0  0  0  0  0  0  0
    2.7967    1.7880    2.3491 H   0  0  0  0  0  0  0  0  0  0  0  0
    4.4081    3.7079    0.5242 H   0  0  0  0  0  0  0  0  0  0  0  0
    6.3101    2.6661   -0.5713 H   0  0  0  0  0  0  0  0  0  0  0  0
    8.7149    0.5226    1.1771 H   0  0  0  0  0  0  0  0  0  0  0  0
    7.3645    0.2875   -1.0070 H   0  0  0  0  0  0  0  0  0  0  0  0
    8.1604    1.8200   -1.4198 H   0  0  0  0  0  0  0  0  0  0  0  0
    9.4153    0.0633   -2.3626 H   0  0  0  0  0  0  0  0  0  0  0  0
   10.6063    2.0105   -0.8767 H   0  0  0  0  0  0  0  0  0  0  0  0
   11.4386    0.8816   -1.9223 H   0  0  0  0  0  0  0  0  0  0  0  0
   12.5228    1.0117    0.2825 H   0  0  0  0  0  0  0  0  0  0  0  0
   11.0238    0.5345    1.0733 H   0  0  0  0  0  0  0  0  0  0  0  0
   12.9761   -1.1915    1.9196 H   0  0  0  0  0  0  0  0  0  0  0  0
   11.2889   -1.7512    1.9360 H   0  0  0  0  0  0  0  0  0  0  0  0
   12.5774   -2.7592    1.2405 H   0  0  0  0  0  0  0  0  0  0  0  0
   13.1824   -0.6585   -1.5326 H   0  0  0  0  0  0  0  0  0  0  0  0
   10.9567   -2.9207   -0.5587 H   0  0  0  0  0  0  0  0  0  0  0  0
   11.2488   -1.8613   -1.9146 H   0  0  0  0  0  0  0  0  0  0  0  0
    8.8473   -1.9053   -1.2609 H   0  0  0  0  0  0  0  0  0  0  0  0
    9.2628   -1.3184    0.3385 H   0  0  0  0  0  0  0  0  0  0  0  0
    5.8276    2.3771    4.3720 H   0  0  0  0  0  0  0  0  0  0  0  0
    4.0468   -0.8043    0.2451 H   0  0  0  0  0  0  0  0  0  0  0  0
    5.0399    0.7365   -4.1242 H   0  0  0  0  0  0  0  0  0  0  0  0
    3.7510    2.5944   -5.2546 H   0  0  0  0  0  0  0  0  0  0  0  0
    1.8128    3.3755   -3.5068 H   0  0  0  0  0  0  0  0  0  0  0  0
    1.2263    2.3221   -0.7201 H   0  0  0  0  0  0  0  0  0  0  0  0
    0.2643   -1.0759    0.2441 H   0  0  0  0  0  0  0  0  0  0  0  0
   -3.9734   -3.8841    0.1059 H   0  0  0  0  0  0  0  0  0  0  0  0
   -5.3706   -3.0918    0.8260 H   0  0  0  0  0  0  0  0  0  0  0  0
   -4.8690    0.1498   -0.9095 H   0  0  0  0  0  0  0  0  0  0  0  0
   -5.9813   -0.7229    0.1351 H   0  0  0  0  0  0  0  0  0  0  0  0
   -7.7839   -2.0235   -0.1891 H   0  0  0  0  0  0  0  0  0  0  0  0
   -9.0936    1.2169   -1.5338 H   0  0  0  0  0  0  0  0  0  0  0  0
   -9.5086    3.2078   -0.1648 H   0  0  0  0  0  0  0  0  0  0  0  0
   -9.2667    3.0910    2.3016 H   0  0  0  0  0  0  0  0  0  0  0  0
   -8.6165    0.9848    3.3762 H   0  0  0  0  0  0  0  0  0  0  0  0
   -7.0286   -1.6895    2.1426 H   0  0  0  0  0  0  0  0  0  0  0  0
   -8.6290   -3.6058    2.3250 H   0  0  0  0  0  0  0  0  0  0  0  0
  -10.0606   -2.5061    2.1001 H   0  0  0  0  0  0  0  0  0  0  0  0
   -9.4058   -1.1918    4.0860 H   0  0  0  0  0  0  0  0  0  0  0  0
   -7.9649   -2.2659    4.3468 H   0  0  0  0  0  0  0  0  0  0  0  0
   -9.4676   -3.1522   -1.1186 H   0  0  0  0  0  0  0  0  0  0  0  0
  -10.3681   -2.0803   -0.0923 H   0  0  0  0  0  0  0  0  0  0  0  0
  1  2  1  0
  2  3  1  0
  3  4  1  0
  4  5  1  0
  5  6  1  0
  6  7  1  0
  7  8  1  0
  8  9  1  0
  9 10  1  0
 10 11  1  0
 11 12  1  0
 12 13  2  0
 13 14  1  0
 14 15  2  0
 15 16  1  0
 16 17  2  0
 16 18  1  0
 18 19  1  0
 19 20  2  0
 19 21  2  0
 19 22  1  0
 22 23  2  0
 23 24  1  0
 24 25  2  0
 25 26  1  0
 26 27  1  0
 27 28  1  0
 28 29  1  0
 29 30  1  0
 30 31  1  0
 31 32  1  0
 31 33  1  6
 31 34  1  0
 34 35  1  0
 25 36  1  0
 36 37  1  0
 37 38  2  0
 37 39  1  0
 36 40  2  0
 15 41  1  0
 41 42  1  0
 42 43  1  0
 43 44  2  0
 44 45  1  0
 45 46  2  0
 46 47  1  0
 47 48  1  0
 48 49  2  0
 49 50  1  0
 50 51  2  0
 41 52  2  0
 11 53  1  0
 53 54  1  0
  8 55  1  0
  5 56  1  0
 56 57  1  0
 57 58  2  0
 58 59  1  0
 59 60  2  0
 60 61  1  0
 61 62  2  0
 62 63  1  0
 63 64  1  0
 64 65  1  0
 56 66  1  0
 66  2  1  0
 55  6  1  0
 62 57  1  0
 65 63  1  0
 54  8  1  0
 52 12  1  0
 40 22  1  0
 51 43  1  0
 35 28  1  0
 50 46  1  0
  1 67  1  0
  1 68  1  0
  1 69  1  0
  3 70  1  0
  3 71  1  0
  4 72  1  0
  4 73  1  0
  6 74  1  0
  7 75  1  0
  7 76  1  0
  9 77  1  0
  9 78  1  0
 10 79  1  0
 10 80  1  0
 13 81  1  0
 14 82  1  0
 18 83  1  0
 23 84  1  0
 24 85  1  0
 26 86  1  0
 27 87  1  0
 27 88  1  0
 28 89  1  6
 29 90  1  0
 29 91  1  0
 30 92  1  0
 30 93  1  0
 32 94  1  0
 32 95  1  0
 32 96  1  0
 33 97  1  0
 34 98  1  0
 34 99  1  0
 35100  1  0
 35101  1  0
 40102  1  0
 44103  1  0
 47104  1  0
 48105  1  0
 49106  1  0
 51107  1  0
 52108  1  0
 54109  1  0
 54110  1  0
 55111  1  0
 55112  1  0
 56113  1  1
 58114  1  0
 59115  1  0
 60116  1  0
 61117  1  0
 63118  1  0
 64119  1  0
 64120  1  0
 65121  1  0
 65122  1  0
 66123  1  0
 66124  1  0
M  CHG  2  37   1  39  -1
M  END
$$$$

     RDKit          3D

124133  0  0  0  0  0  0  0  0999 V2000
   -9.7456   -4.0958   -1.0509 C   0  0  0  0  0  0  0  0  0  0  0  0
   -8.6136   -3.1993   -0.8556 N   0  0  0  0  0  0  0  0  0  0  0  0
   -7.7125   -3.6667    0.2034 C   0  0  0  0  0  0  0  0  0  0  0  0
   -6.4789   -2.7406    0.4086 C   0  0  0  0  0  0  0  0  0  0  0  0
   -6.6913   -1.3007    0.1583 N   0  0  0  0  0  0  0  0  0  0  0  0
   -6.1610   -0.7459   -1.0973 C   0  0  0  0  0  0  0  0  0  0  0  0
   -6.1327   -1.6727   -2.3262 C   0  0  0  0  0  0  0  0  0  0  0  0
   -4.6720   -1.1762   -2.6079 C   0  0  0  0  0  0  0  0  0  0  0  0
   -3.7445   -2.3395   -3.0085 C   0  0  0  0  0  0  0  0  0  0  0  0
   -2.4508   -1.8528   -3.6677 C   0  0  0  0  0  0  0  0  0  0  0  0
   -2.0442   -0.5484   -3.1385 N   0  0  0  0  0  0  0  0  0  0  0  0
   -1.2172   -0.4501   -1.9986 C   0  0  0  0  0  0  0  0  0  0  0  0
   -0.8396   -1.5718   -1.2391 C   0  0  0  0  0  0  0  0  0  0  0  0
   -0.0344   -1.4635   -0.0946 C   0  0  0  0  0  0  0  0  0  0  0  0
    0.4374   -0.2192    0.3315 C   0  0  0  0  0  0  0  0  0  0  0  0
    1.2316   -0.1836    1.5873 C   0  0  0  0  0  0  0  0  0  0  0  0
    1.8973   -1.1495    1.9259 O   0  0  0  0  0  0  0  0  0  0  0  0
    1.1475    0.9988    2.3269 N   0  0  0  0  0  0  0  0  0  0  0  0
    1.9030    1.2985    3.7725 S   0  0  0  0  0  0  0  0  0  0  0  0
    1.6814    0.1990    4.6827 O   0  0  0  0  0  0  0  0  0  0  0  0
    1.5110    2.6472    4.1279 O   0  0  0  0  0  0  0  0  0  0  0  0
    3.6225    1.3481    3.3359 C   0  0  0  0  0  0  0  0  0  0  0  0
    4.3720    0.1744    3.3410 C   0  0  0  0  0  0  0  0  0  0  0  0
    5.7349    0.2099    3.0151 C   0  0  0  0  0  0  0  0  0  0  0  0
    6.3884    1.4039    2.6630 C   0  0  0  0  0  0  0  0  0  0  0  0
    7.7640    1.4417    2.4158 N   0  0  0  0  0  0  0  0  0  0  0  0
    8.5682    0.2549    2.1342 C   0  0  0  0  0  0  0  0  0  0  0  0
    8.3076   -0.3195    0.7277 C   0  0  1  0  0  0  0  0  0  0  0  0
    8.8439    0.5937   -0.3961 C   0  0  0  0  0  0  0  0  0  0  0  0
   10.2276    0.1625   -0.8800 C   0  0  0  0  0  0  0  0  0  0  0  0
   10.1949   -1.2554   -1.4859 C   0  0  2  0  0  0  0  0  0  0  0  0
   11.5899   -1.8846   -1.4296 C   0  0  0  0  0  0  0  0  0  0  0  0
    9.8215   -1.1594   -2.8650 O   0  0  0  0  0  0  0  0  0  0  0  0
    9.1468   -2.1571   -0.8041 C   0  0  0  0  0  0  0  0  0  0  0  0
    8.8973   -1.7426    0.6414 C   0  0  0  0  0  0  0  0  0  0  0  0
    5.6047    2.5821    2.7275 C   0  0  0  0  0  0  0  0  0  0  0  0
    6.2027    3.8883    2.4492 N   0  0  0  0  0  0  0  0  0  0  0  0
    7.0399    3.9626    1.5319 O   0  0  0  0  0  0  0  0  0  0  0  0
    5.8338    4.8461    3.1444 O   0  0  0  0  0  0  0  0  0  0  0  0
    4.2379    2.5659    3.0589 C   0  0  0  0  0  0  0  0  0  0  0  0
    0.1211    0.9043   -0.4347 C   0  0  0  0  0  0  0  0  0  0  0  0
    0.5719    2.1670   -0.1267 O   0  0  0  0  0  0  0  0  0  0  0  0
    1.8738    2.4775   -0.4618 C   0  0  0  0  0  0  0  0  0  0  0  0
    2.4141    3.5990    0.1659 C   0  0  0  0  0  0  0  0  0  0  0  0
    3.6831    4.0549    0.0337 N   0  0  0  0  0  0  0  0  0  0  0  0
    4.4049    3.3285   -0.8390 C   0  0  0  0  0  0  0  0  0  0  0  0
    5.7099    3.5796   -1.1653 N   0  0  0  0  0  0  0  0  0  0  0  0
    6.1400    2.6624   -2.0899 C   0  0  0  0  0  0  0  0  0  0  0  0
    5.0958    1.7989   -2.3481 C   0  0  0  0  0  0  0  0  0  0  0  0
    3.9900    2.2126   -1.5572 C   0  0  0  0  0  0  0  0  0  0  0  0
    2.6714    1.7654   -1.3625 C   0  0  0  0  0  0  0  0  0  0  0  0
   -0.7068    0.7888   -1.5627 C   0  0  0  0  0  0  0  0  0  0  0  0
   -2.9602    0.7670   -3.6644 S   0  0  0  0  0  0  0  0  0  0  0  0
   -4.6084   -0.0073   -3.5961 C   0  0  0  0  0  0  0  0  0  0  0  0
   -4.6185   -0.7754   -1.0878 C   0  0  0  0  0  0  0  0  0  0  0  0
   -8.1309   -0.9701    0.3451 C   0  0  1  0  0  0  0  0  0  0  0  0
   -8.4111    0.5383    0.4549 C   0  0  0  0  0  0  0  0  0  0  0  0
   -9.1826    1.2073   -0.5195 C   0  0  0  0  0  0  0  0  0  0  0  0
   -9.4160    2.5805   -0.4474 C   0  0  0  0  0  0  0  0  0  0  0  0
   -8.8777    3.3182    0.5944 C   0  0  0  0  0  0  0  0  0  0  0  0
   -8.1146    2.6780    1.5688 C   0  0  0  0  0  0  0  0  0  0  0  0
   -7.8753    1.2874    1.5431 C   0  0  0  0  0  0  0  0  0  0  0  0
   -7.0249    0.6594    2.6358 C   0  0  0  0  0  0  0  0  0  0  0  0
   -7.6650   -0.2462    3.6651 C   0  0  0  0  0  0  0  0  0  0  0  0
   -7.1527    1.0960    4.0800 C   0  0  0  0  0  0  0  0  0  0  0  0
   -9.0517   -1.8034   -0.6168 C   0  0  0  0  0  0  0  0  0  0  0  0
   -9.3992   -5.1010   -1.3149 H   0  0  0  0  0  0  0  0  0  0  0  0
  -10.3712   -4.1724   -0.1545 H   0  0  0  0  0  0  0  0  0  0  0  0
  -10.3711   -3.7492   -1.8810 H   0  0  0  0  0  0  0  0  0  0  0  0
   -7.3457   -4.6730   -0.0332 H   0  0  0  0  0  0  0  0  0  0  0  0
   -8.2609   -3.7427    1.1523 H   0  0  0  0  0  0  0  0  0  0  0  0
   -6.1800   -2.8372    1.4608 H   0  0  0  0  0  0  0  0  0  0  0  0
   -5.6272   -3.1423   -0.1499 H   0  0  0  0  0  0  0  0  0  0  0  0
   -6.5195    0.2617   -1.3413 H   0  0  0  0  0  0  0  0  0  0  0  0
   -6.1944   -2.7525   -2.1648 H   0  0  0  0  0  0  0  0  0  0  0  0
   -6.8677   -1.4225   -3.0994 H   0  0  0  0  0  0  0  0  0  0  0  0
   -4.2550   -3.0030   -3.7184 H   0  0  0  0  0  0  0  0  0  0  0  0
   -3.5110   -2.9578   -2.1338 H   0  0  0  0  0  0  0  0  0  0  0  0
   -2.6227   -1.7590   -4.7500 H   0  0  0  0  0  0  0  0  0  0  0  0
   -1.6602   -2.6088   -3.5948 H   0  0  0  0  0  0  0  0  0  0  0  0
   -1.1837   -2.5693   -1.4959 H   0  0  0  0  0  0  0  0  0  0  0  0
    0.2046   -2.3642    0.4701 H   0  0  0  0  0  0  0  0  0  0  0  0
    0.5624    1.7701    2.0192 H   0  0  0  0  0  0  0  0  0  0  0  0
    3.9081   -0.7779    3.5965 H   0  0  0  0  0  0  0  0  0  0  0  0
    6.2704   -0.7352    3.0450 H   0  0  0  0  0  0  0  0  0  0  0  0
    8.0438    2.2528    1.8565 H   0  0  0  0  0  0  0  0  0  0  0  0
    9.6240    0.5412    2.2177 H   0  0  0  0  0  0  0  0  0  0  0  0
    8.4114   -0.5036    2.9096 H   0  0  0  0  0  0  0  0  0  0  0  0
    7.2232   -0.4011    0.5762 H   0  0  0  0  0  0  0  0  0  0  0  0
    8.8715    1.6424   -0.0831 H   0  0  0  0  0  0  0  0  0  0  0  0
    8.1512    0.5481   -1.2457 H   0  0  0  0  0  0  0  0  0  0  0  0
   10.5849    0.8855   -1.6233 H   0  0  0  0  0  0  0  0  0  0  0  0
   10.9214    0.2041   -0.0309 H   0  0  0  0  0  0  0  0  0  0  0  0
   12.3245   -1.2501   -1.9387 H   0  0  0  0  0  0  0  0  0  0  0  0
   11.6042   -2.8501   -1.9481 H   0  0  0  0  0  0  0  0  0  0  0  0
   11.9226   -2.0388   -0.3982 H   0  0  0  0  0  0  0  0  0  0  0  0
   10.4956   -0.6307   -3.3255 H   0  0  0  0  0  0  0  0  0  0  0  0
    9.4633   -3.2068   -0.8382 H   0  0  0  0  0  0  0  0  0  0  0  0
    8.1969   -2.1203   -1.3545 H   0  0  0  0  0  0  0  0  0  0  0  0
    8.2058   -2.4490    1.1163 H   0  0  0  0  0  0  0  0  0  0  0  0
    9.8389   -1.8062    1.2017 H   0  0  0  0  0  0  0  0  0  0  0  0
    3.6695    3.4936    3.0937 H   0  0  0  0  0  0  0  0  0  0  0  0
    1.8045    4.1860    0.8508 H   0  0  0  0  0  0  0  0  0  0  0  0
    6.2612    4.3183   -0.7486 H   0  0  0  0  0  0  0  0  0  0  0  0
    7.1505    2.6988   -2.4743 H   0  0  0  0  0  0  0  0  0  0  0  0
    5.1285    0.9598   -3.0311 H   0  0  0  0  0  0  0  0  0  0  0  0
    2.3133    0.9026   -1.9113 H   0  0  0  0  0  0  0  0  0  0  0  0
   -0.9250    1.6975   -2.1201 H   0  0  0  0  0  0  0  0  0  0  0  0
   -4.8629   -0.3530   -4.6046 H   0  0  0  0  0  0  0  0  0  0  0  0
   -5.3272    0.7780   -3.3404 H   0  0  0  0  0  0  0  0  0  0  0  0
   -4.1445   -1.5242   -0.4429 H   0  0  0  0  0  0  0  0  0  0  0  0
   -4.1561    0.1894   -0.8538 H   0  0  0  0  0  0  0  0  0  0  0  0
   -8.4025   -1.3438    1.3430 H   0  0  0  0  0  0  0  0  0  0  0  0
   -9.6088    0.6797   -1.3669 H   0  0  0  0  0  0  0  0  0  0  0  0
  -10.0092    3.0731   -1.2133 H   0  0  0  0  0  0  0  0  0  0  0  0
   -9.0435    4.3904    0.6508 H   0  0  0  0  0  0  0  0  0  0  0  0
   -7.6888    3.2788    2.3702 H   0  0  0  0  0  0  0  0  0  0  0  0
   -6.0169    0.3910    2.3219 H   0  0  0  0  0  0  0  0  0  0  0  0
   -7.1090   -1.1238    3.9733 H   0  0  0  0  0  0  0  0  0  0  0  0
   -8.7397   -0.3858    3.6430 H   0  0  0  0  0  0  0  0  0  0  0  0
   -7.8884    1.8429    4.3538 H   0  0  0  0  0  0  0  0  0  0  0  0
   -6.2468    1.1338    4.6746 H   0  0  0  0  0  0  0  0  0  0  0  0
   -9.0975   -1.3380   -1.6066 H   0  0  0  0  0  0  0  0  0  0  0  0
  -10.0686   -1.7781   -0.2016 H   0  0  0  0  0  0  0  0  0  0  0  0
  1  2  1  0
  2  3  1  0
  3  4  1  0
  4  5  1  0
  5  6  1  0
  6  7  1  0
  7  8  1  0
  8  9  1  0
  9 10  1  0
 10 11  1  0
 11 12  1  0
 12 13  2  0
 13 14  1  0
 14 15  2  0
 15 16  1  0
 16 17  2  0
 16 18  1  0
 18 19  1  0
 19 20  2  0
 19 21  2  0
 19 22  1  0
 22 23  2  0
 23 24  1  0
 24 25  2  0
 25 26  1  0
 26 27  1  0
 27 28  1  0
 28 29  1  0
 29 30  1  0
 30 31  1  0
 31 32  1  0
 31 33  1  6
 31 34  1  0
 34 35  1  0
 25 36  1  0
 36 37  1  0
 37 38  2  0
 37 39  1  0
 36 40  2  0
 15 41  1  0
 41 42  1  0
 42 43  1  0
 43 44  2  0
 44 45  1  0
 45 46  2  0
 46 47  1  0
 47 48  1  0
 48 49  2  0
 49 50  1  0
 50 51  2  0
 41 52  2  0
 11 53  1  0
 53 54  1  0
  8 55  1  0
  5 56  1  0
 56 57  1  0
 57 58  2  0
 58 59  1  0
 59 60  2  0
 60 61  1  0
 61 62  2  0
 62 63  1  0
 63 64  1  0
 64 65  1  0
 56 66  1  0
 66  2  1  0
 55  6  1  0
 62 57  1  0
 65 63  1  0
 54  8  1  0
 52 12  1  0
 40 22  1  0
 51 43  1  0
 35 28  1  0
 50 46  1  0
  1 67  1  0
  1 68  1  0
  1 69  1  0
  3 70  1  0
  3 71  1  0
  4 72  1  0
  4 73  1  0
  6 74  1  0
  7 75  1  0
  7 76  1  0
  9 77  1  0
  9 78  1  0
 10 79  1  0
 10 80  1  0
 13 81  1  0
 14 82  1  0
 18 83  1  0
 23 84  1  0
 24 85  1  0
 26 86  1  0
 27 87  1  0
 27 88  1  0
 28 89  1  6
 29 90  1  0
 29 91  1  0
 30 92  1  0
 30 93  1  0
 32 94  1  0
 32 95  1  0
 32 96  1  0
 33 97  1  0
 34 98  1  0
 34 99  1  0
 35100  1  0
 35101  1  0
 40102  1  0
 44103  1  0
 47104  1  0
 48105  1  0
 49106  1  0
 51107  1  0
 52108  1  0
 54109  1  0
 54110  1  0
 55111  1  0
 55112  1  0
 56113  1  1
 58114  1  0
 59115  1  0
 60116  1  0
 61117  1  0
 63118  1  0
 64119  1  0
 64120  1  0
 65121  1  0
 65122  1  0
 66123  1  0
 66124  1  0
M  CHG  2  37   1  39  -1
M  END
$$$$
