
     RDKit          3D

131140  0  0  0  0  0  0  0  0999 V2000
   12.6711   -3.4768    1.5550 C   0  0  0  0  0  0  0  0  0  0  0  0
   13.1644   -2.1418    1.5238 O   0  0  0  0  0  0  0  0  0  0  0  0
   12.1997   -1.1936    1.0319 C   0  0  0  0  0  0  0  0  0  0  0  0
   12.2059   -1.2101   -0.5048 C   0  0  0  0  0  0  0  0  0  0  0  0
   11.3182   -0.1180   -1.1237 C   0  0  1  0  0  0  0  0  0  0  0  0
    9.8247   -0.4419   -0.9115 C   0  0  0  0  0  0  0  0  0  0  0  0
    8.9781    0.3845   -1.7827 N   0  0  0  0  0  0  0  0  0  0  0  0
    7.7184    0.7479   -1.2764 C   0  0  0  0  0  0  0  0  0  0  0  0
    7.4382    2.1181   -1.1389 C   0  0  0  0  0  0  0  0  0  0  0  0
    6.2133    2.5709   -0.6323 C   0  0  0  0  0  0  0  0  0  0  0  0
    5.2322    1.6545   -0.2484 C   0  0  0  0  0  0  0  0  0  0  0  0
    3.6817    2.2830    0.3419 S   0  0  0  0  0  0  0  0  0  0  0  0
    3.7688    2.3374    1.8654 N   0  0  0  0  0  0  0  0  0  0  0  0
    3.3416    3.3934   -0.5221 O   0  0  0  0  0  0  0  0  0  0  0  0
    2.4434    1.2243   -0.0415 N   0  0  0  0  0  0  0  0  0  0  0  0
    2.1383    0.1095    0.6772 C   0  0  0  0  0  0  0  0  0  0  0  0
    2.8575   -0.3211    1.5743 O   0  0  0  0  0  0  0  0  0  0  0  0
    0.8652   -0.6032    0.3443 C   0  0  0  0  0  0  0  0  0  0  0  0
    0.4354   -1.5857    1.2458 C   0  0  0  0  0  0  0  0  0  0  0  0
   -0.7446   -2.3065    1.0168 C   0  0  0  0  0  0  0  0  0  0  0  0
   -1.5293   -2.1015   -0.1257 C   0  0  0  0  0  0  0  0  0  0  0  0
   -2.6883   -2.8369   -0.3317 N   0  0  0  0  0  0  0  0  0  0  0  0
   -3.5844   -3.0610    0.8145 C   0  0  0  0  0  0  0  0  0  0  0  0
   -5.0586   -2.9020    0.4143 C   0  0  0  0  0  0  0  0  0  0  0  0
   -5.2066   -1.7299   -0.5677 C   0  0  0  0  0  0  0  0  0  0  0  0
   -4.4272   -1.9899   -1.8693 C   0  0  0  0  0  0  0  0  0  0  0  0
   -3.2875   -2.9875   -1.6560 C   0  0  0  0  0  0  0  0  0  0  0  0
   -4.9980   -0.3040    0.0475 C   0  0  0  0  0  0  0  0  0  0  0  0
   -6.5207   -0.2817    0.3705 C   0  0  0  0  0  0  0  0  0  0  0  0
   -7.1128    1.0273    0.0357 N   0  0  0  0  0  0  0  0  0  0  0  0
   -6.4701    2.1166    0.8159 C   0  0  0  0  0  0  0  0  0  0  0  0
   -6.7808    2.1211    2.3285 C   0  0  0  0  0  0  0  0  0  0  0  0
   -8.2268    2.1876    2.5905 N   0  0  0  0  0  0  0  0  0  0  0  0
   -8.5050    2.1274    4.0229 C   0  0  0  0  0  0  0  0  0  0  0  0
   -8.9162    1.0944    1.8690 C   0  0  0  0  0  0  0  0  0  0  0  0
   -8.5902    1.0687    0.3421 C   0  0  2  0  0  0  0  0  0  0  0  0
   -9.4364    0.1764   -0.5840 C   0  0  0  0  0  0  0  0  0  0  0  0
   -9.3913    0.5548   -1.9554 C   0  0  0  0  0  0  0  0  0  0  0  0
  -10.1320   -0.0962   -2.9361 C   0  0  0  0  0  0  0  0  0  0  0  0
  -10.9576   -1.1410   -2.5704 C   0  0  0  0  0  0  0  0  0  0  0  0
  -11.0185   -1.5339   -1.2335 C   0  0  0  0  0  0  0  0  0  0  0  0
  -10.2559   -0.9190   -0.2061 C   0  0  0  0  0  0  0  0  0  0  0  0
  -10.4247   -1.4496    1.2090 C   0  0  0  0  0  0  0  0  0  0  0  0
   -9.3471   -2.2901    1.8644 C   0  0  0  0  0  0  0  0  0  0  0  0
  -10.6334   -2.9331    1.4642 C   0  0  0  0  0  0  0  0  0  0  0  0
   -6.6730   -1.2647   -0.8241 C   0  0  0  0  0  0  0  0  0  0  0  0
   -1.0736   -1.1355   -1.0320 C   0  0  0  0  0  0  0  0  0  0  0  0
    0.0799   -0.3614   -0.7896 C   0  0  0  0  0  0  0  0  0  0  0  0
    0.4665    0.5955   -1.7112 O   0  0  0  0  0  0  0  0  0  0  0  0
   -0.5032    1.4848   -2.1250 C   0  0  0  0  0  0  0  0  0  0  0  0
   -0.5929    1.7616   -3.4862 C   0  0  0  0  0  0  0  0  0  0  0  0
   -1.4747    2.6138   -4.0628 N   0  0  0  0  0  0  0  0  0  0  0  0
   -2.2812    3.2106   -3.1660 C   0  0  0  0  0  0  0  0  0  0  0  0
   -3.2595    4.1124   -3.4839 N   0  0  0  0  0  0  0  0  0  0  0  0
   -3.8909    4.5346   -2.3412 C   0  0  0  0  0  0  0  0  0  0  0  0
   -3.3013    3.8920   -1.2713 C   0  0  0  0  0  0  0  0  0  0  0  0
   -2.2828    3.0450   -1.7841 C   0  0  0  0  0  0  0  0  0  0  0  0
   -1.3485    2.1532   -1.2339 C   0  0  0  0  0  0  0  0  0  0  0  0
    5.4658    0.2884   -0.3718 C   0  0  0  0  0  0  0  0  0  0  0  0
    6.7033   -0.1417   -0.8773 C   0  0  0  0  0  0  0  0  0  0  0  0
    6.8561   -1.5699   -1.0489 N   0  0  0  0  0  0  0  0  0  0  0  0
    6.3634   -2.0697   -2.0687 O   0  0  0  0  0  0  0  0  0  0  0  0
    7.4058   -2.1937   -0.1295 O   0  0  0  0  0  0  0  0  0  0  0  0
   11.7218    1.2585   -0.5686 C   0  0  0  0  0  0  0  0  0  0  0  0
   11.7398    1.3138    0.9613 C   0  0  0  0  0  0  0  0  0  0  0  0
   12.6036    0.2045    1.5765 C   0  0  1  0  0  0  0  0  0  0  0  0
   12.5208    0.2568    3.1057 C   0  0  0  0  0  0  0  0  0  0  0  0
   13.9741    0.4606    1.2228 O   0  0  0  0  0  0  0  0  0  0  0  0
   13.4552   -4.1213    1.9626 H   0  0  0  0  0  0  0  0  0  0  0  0
   12.4263   -3.8265    0.5490 H   0  0  0  0  0  0  0  0  0  0  0  0
   11.7960   -3.5473    2.2017 H   0  0  0  0  0  0  0  0  0  0  0  0
   11.2037   -1.4538    1.4110 H   0  0  0  0  0  0  0  0  0  0  0  0
   11.8947   -2.1928   -0.8751 H   0  0  0  0  0  0  0  0  0  0  0  0
   13.2390   -1.0874   -0.8630 H   0  0  0  0  0  0  0  0  0  0  0  0
   11.5083   -0.1099   -2.2055 H   0  0  0  0  0  0  0  0  0  0  0  0
    9.5508   -0.3164    0.1406 H   0  0  0  0  0  0  0  0  0  0  0  0
    9.6588   -1.4915   -1.1793 H   0  0  0  0  0  0  0  0  0  0  0  0
    9.4813    1.1823   -2.1685 H   0  0  0  0  0  0  0  0  0  0  0  0
    8.1807    2.8623   -1.4247 H   0  0  0  0  0  0  0  0  0  0  0  0
    6.0318    3.6423   -0.5420 H   0  0  0  0  0  0  0  0  0  0  0  0
    3.6056    1.4084    2.2682 H   0  0  0  0  0  0  0  0  0  0  0  0
    1.7994    1.6296   -0.7016 H   0  0  0  0  0  0  0  0  0  0  0  0
    1.0134   -1.8063    2.1418 H   0  0  0  0  0  0  0  0  0  0  0  0
   -1.0277   -3.0668    1.7407 H   0  0  0  0  0  0  0  0  0  0  0  0
   -3.4184   -4.0649    1.2226 H   0  0  0  0  0  0  0  0  0  0  0  0
   -3.3778   -2.3447    1.6201 H   0  0  0  0  0  0  0  0  0  0  0  0
   -5.6633   -2.7647    1.3177 H   0  0  0  0  0  0  0  0  0  0  0  0
   -5.4199   -3.8244   -0.0566 H   0  0  0  0  0  0  0  0  0  0  0  0
   -5.0961   -2.4061   -2.6342 H   0  0  0  0  0  0  0  0  0  0  0  0
   -4.0367   -1.0528   -2.2823 H   0  0  0  0  0  0  0  0  0  0  0  0
   -3.6910   -4.0078   -1.7240 H   0  0  0  0  0  0  0  0  0  0  0  0
   -2.5523   -2.9267   -2.4672 H   0  0  0  0  0  0  0  0  0  0  0  0
   -4.6589    0.4399   -0.6876 H   0  0  0  0  0  0  0  0  0  0  0  0
   -4.3399   -0.2393    0.9197 H   0  0  0  0  0  0  0  0  0  0  0  0
   -6.7646   -0.6990    1.3523 H   0  0  0  0  0  0  0  0  0  0  0  0
   -5.3828    2.1188    0.6770 H   0  0  0  0  0  0  0  0  0  0  0  0
   -6.8009    3.0745    0.3892 H   0  0  0  0  0  0  0  0  0  0  0  0
   -6.3382    1.2324    2.7964 H   0  0  0  0  0  0  0  0  0  0  0  0
   -6.2934    2.9974    2.7736 H   0  0  0  0  0  0  0  0  0  0  0  0
   -8.0218    2.9607    4.5447 H   0  0  0  0  0  0  0  0  0  0  0  0
   -9.5803    2.2212    4.2081 H   0  0  0  0  0  0  0  0  0  0  0  0
   -8.1573    1.1919    4.4754 H   0  0  0  0  0  0  0  0  0  0  0  0
   -8.6398    0.1466    2.3326 H   0  0  0  0  0  0  0  0  0  0  0  0
   -9.9956    1.2367    1.9961 H   0  0  0  0  0  0  0  0  0  0  0  0
   -8.9053    2.0776    0.0191 H   0  0  0  0  0  0  0  0  0  0  0  0
   -8.7515    1.3837   -2.2599 H   0  0  0  0  0  0  0  0  0  0  0  0
  -10.0679    0.2232   -3.9715 H   0  0  0  0  0  0  0  0  0  0  0  0
  -11.5568   -1.6551   -3.3172 H   0  0  0  0  0  0  0  0  0  0  0  0
  -11.6926   -2.3506   -0.9819 H   0  0  0  0  0  0  0  0  0  0  0  0
  -11.0223   -0.8083    1.8577 H   0  0  0  0  0  0  0  0  0  0  0  0
   -8.4639   -2.5592    1.2986 H   0  0  0  0  0  0  0  0  0  0  0  0
   -9.1639   -2.1467    2.9216 H   0  0  0  0  0  0  0  0  0  0  0  0
  -10.5898   -3.6436    0.6462 H   0  0  0  0  0  0  0  0  0  0  0  0
  -11.3295   -3.2136    2.2464 H   0  0  0  0  0  0  0  0  0  0  0  0
   -7.4296   -2.0452   -0.7197 H   0  0  0  0  0  0  0  0  0  0  0  0
   -6.8044   -0.7902   -1.8044 H   0  0  0  0  0  0  0  0  0  0  0  0
   -1.6394   -0.9434   -1.9394 H   0  0  0  0  0  0  0  0  0  0  0  0
    0.0759    1.2695   -4.1897 H   0  0  0  0  0  0  0  0  0  0  0  0
   -3.4648    4.4067   -4.4275 H   0  0  0  0  0  0  0  0  0  0  0  0
   -4.6993    5.2536   -2.3886 H   0  0  0  0  0  0  0  0  0  0  0  0
   -3.5774    4.0185   -0.2326 H   0  0  0  0  0  0  0  0  0  0  0  0
   -1.3005    1.9956   -0.1631 H   0  0  0  0  0  0  0  0  0  0  0  0
    4.7192   -0.4465   -0.0893 H   0  0  0  0  0  0  0  0  0  0  0  0
   12.7250    1.5051   -0.9417 H   0  0  0  0  0  0  0  0  0  0  0  0
   11.0578    2.0408   -0.9484 H   0  0  0  0  0  0  0  0  0  0  0  0
   10.7132    1.2498    1.3432 H   0  0  0  0  0  0  0  0  0  0  0  0
   12.1325    2.2964    1.2583 H   0  0  0  0  0  0  0  0  0  0  0  0
   11.5036    0.0536    3.4590 H   0  0  0  0  0  0  0  0  0  0  0  0
   13.2007   -0.4678    3.5672 H   0  0  0  0  0  0  0  0  0  0  0  0
   12.8251    1.2403    3.4764 H   0  0  0  0  0  0  0  0  0  0  0  0
   14.4463   -0.3752    1.4139 H   0  0  0  0  0  0  0  0  0  0  0  0
  1  2  1  0
  2  3  1  0
  3  4  1  0
  4  5  1  0
  5  6  1  0
  6  7  1  0
  7  8  1  0
  8  9  2  0
  9 10  1  0
 10 11  2  0
 11 12  1  0
 12 13  2  0
 12 14  2  0
 12 15  1  0
 15 16  1  0
 16 17  2  0
 16 18  1  0
 18 19  2  0
 19 20  1  0
 20 21  2  0
 21 22  1  0
 22 23  1  0
 23 24  1  0
 24 25  1  0
 25 26  1  0
 26 27  1  0
 25 28  1  0
 28 29  1  0
 29 30  1  0
 30 31  1  0
 31 32  1  0
 32 33  1  0
 33 34  1  0
 33 35  1  0
 35 36  1  0
 36 37  1  0
 37 38  2  0
 38 39  1  0
 39 40  2  0
 40 41  1  0
 41 42  2  0
 42 43  1  0
 43 44  1  0
 44 45  1  0
 29 46  1  0
 21 47  1  0
 47 48  2  0
 48 49  1  0
 49 50  1  0
 50 51  2  0
 51 52  1  0
 52 53  2  0
 53 54  1  0
 54 55  1  0
 55 56  2  0
 56 57  1  0
 57 58  2  0
 11 59  1  0
 59 60  2  0
 60 61  1  0
 61 62  2  0
 61 63  1  0
  5 64  1  0
 64 65  1  0
 65 66  1  0
 66 67  1  0
 66 68  1  1
 66  3  1  0
 60  8  1  0
 48 18  1  0
 58 50  1  0
 27 22  1  0
 36 30  1  0
 42 37  1  0
 45 43  1  0
 57 53  1  0
 46 25  1  0
  1 69  1  0
  1 70  1  0
  1 71  1  0
  3 72  1  0
  4 73  1  0
  4 74  1  0
  5 75  1  6
  6 76  1  0
  6 77  1  0
  7 78  1  0
  9 79  1  0
 10 80  1  0
 13 81  1  0
 15 82  1  0
 19 83  1  0
 20 84  1  0
 23 85  1  0
 23 86  1  0
 24 87  1  0
 24 88  1  0
 26 89  1  0
 26 90  1  0
 27 91  1  0
 27 92  1  0
 28 93  1  0
 28 94  1  0
 29 95  1  0
 31 96  1  0
 31 97  1  0
 32 98  1  0
 32 99  1  0
 34100  1  0
 34101  1  0
 34102  1  0
 35103  1  0
 35104  1  0
 36105  1  6
 38106  1  0
 39107  1  0
 40108  1  0
 41109  1  0
 43110  1  0
 44111  1  0
 44112  1  0
 45113  1  0
 45114  1  0
 46115  1  0
 46116  1  0
 47117  1  0
 51118  1  0
 54119  1  0
 55120  1  0
 56121  1  0
 58122  1  0
 59123  1  0
 64124  1  0
 64125  1  0
 65126  1  0
 65127  1  0
 67128  1  0
 67129  1  0
 67130  1  0
 68131  1  0
M  CHG  2  61   1  63  -1
M  END
$$$$

     RDKit          3D

131140  0  0  0  0  0  0  0  0999 V2000
   14.6131   -3.5615   -1.1355 C   0  0  0  0  0  0  0  0  0  0  0  0
   13.3356   -3.3173   -0.5641 O   0  0  0  0  0  0  0  0  0  0  0  0
   12.4123   -2.6341   -1.4268 C   0  0  0  0  0  0  0  0  0  0  0  0
   11.0440   -2.7462   -0.7365 C   0  0  0  0  0  0  0  0  0  0  0  0
    9.9259   -2.0383   -1.5130 C   0  0  1  0  0  0  0  0  0  0  0  0
    8.5617   -2.1714   -0.8082 C   0  0  0  0  0  0  0  0  0  0  0  0
    8.5835   -1.5174    0.4999 N   0  0  0  0  0  0  0  0  0  0  0  0
    7.6271   -0.5726    0.8918 C   0  0  0  0  0  0  0  0  0  0  0  0
    7.0112    0.2722   -0.0500 C   0  0  0  0  0  0  0  0  0  0  0  0
    6.1155    1.2806    0.3284 C   0  0  0  0  0  0  0  0  0  0  0  0
    5.8448    1.4987    1.6788 C   0  0  0  0  0  0  0  0  0  0  0  0
    4.7112    2.7780    2.1476 S   0  0  0  0  0  0  0  0  0  0  0  0
    4.9968    3.9894    1.2509 N   0  0  0  0  0  0  0  0  0  0  0  0
    4.6399    2.8456    3.5898 O   0  0  0  0  0  0  0  0  0  0  0  0
    3.1743    2.3575    1.6540 N   0  0  0  0  0  0  0  0  0  0  0  0
    2.6095    1.1754    2.0274 C   0  0  0  0  0  0  0  0  0  0  0  0
    3.2158    0.2450    2.5479 O   0  0  0  0  0  0  0  0  0  0  0  0
    1.1449    1.0458    1.8002 C   0  0  0  0  0  0  0  0  0  0  0  0
    0.4195    0.2956    2.7294 C   0  0  0  0  0  0  0  0  0  0  0  0
   -0.9631    0.1252    2.5822 C   0  0  0  0  0  0  0  0  0  0  0  0
   -1.6702    0.6710    1.4999 C   0  0  0  0  0  0  0  0  0  0  0  0
   -3.0385    0.4932    1.3493 N   0  0  0  0  0  0  0  0  0  0  0  0
   -3.7549   -0.5594    2.0803 C   0  0  0  0  0  0  0  0  0  0  0  0
   -5.0237   -0.9522    1.3257 C   0  0  0  0  0  0  0  0  0  0  0  0
   -5.9718    0.2519    1.1798 C   0  0  0  0  0  0  0  0  0  0  0  0
   -5.2320    1.5950    1.1978 C   0  0  0  0  0  0  0  0  0  0  0  0
   -3.8427    1.4543    0.5789 C   0  0  0  0  0  0  0  0  0  0  0  0
   -7.0084    0.0863    0.0209 C   0  0  0  0  0  0  0  0  0  0  0  0
   -7.9636   -0.5935    1.0424 C   0  0  0  0  0  0  0  0  0  0  0  0
   -9.3438   -0.0997    0.8689 N   0  0  0  0  0  0  0  0  0  0  0  0
  -10.1108   -0.2239    2.1364 C   0  0  0  0  0  0  0  0  0  0  0  0
  -10.4389   -1.6685    2.5750 C   0  0  0  0  0  0  0  0  0  0  0  0
  -11.1758   -2.4050    1.5362 N   0  0  0  0  0  0  0  0  0  0  0  0
  -11.4094   -3.7894    1.9401 C   0  0  0  0  0  0  0  0  0  0  0  0
  -10.4374   -2.3428    0.2535 C   0  0  0  0  0  0  0  0  0  0  0  0
  -10.0937   -0.8832   -0.1806 C   0  0  2  0  0  0  0  0  0  0  0  0
   -9.5775   -0.6343   -1.6086 C   0  0  0  0  0  0  0  0  0  0  0  0
   -9.8640    0.6626   -2.1171 C   0  0  0  0  0  0  0  0  0  0  0  0
   -9.4308    1.0845   -3.3694 C   0  0  0  0  0  0  0  0  0  0  0  0
   -8.6842    0.2223   -4.1485 C   0  0  0  0  0  0  0  0  0  0  0  0
   -8.3862   -1.0549   -3.6703 C   0  0  0  0  0  0  0  0  0  0  0  0
   -8.8278   -1.5350   -2.4122 C   0  0  0  0  0  0  0  0  0  0  0  0
   -8.4072   -2.9316   -1.9782 C   0  0  0  0  0  0  0  0  0  0  0  0
   -9.3534   -4.0990   -2.1724 C   0  0  0  0  0  0  0  0  0  0  0  0
   -8.1006   -4.0300   -2.9792 C   0  0  0  0  0  0  0  0  0  0  0  0
   -7.2130    0.2383    2.1247 C   0  0  0  0  0  0  0  0  0  0  0  0
   -0.9139    1.3962    0.5625 C   0  0  0  0  0  0  0  0  0  0  0  0
    0.4684    1.6131    0.7173 C   0  0  0  0  0  0  0  0  0  0  0  0
    1.1899    2.2854   -0.2463 O   0  0  0  0  0  0  0  0  0  0  0  0
    0.6887    3.4725   -0.7272 C   0  0  0  0  0  0  0  0  0  0  0  0
    0.8742    3.7358   -2.0823 C   0  0  0  0  0  0  0  0  0  0  0  0
    0.4834    4.8570   -2.7345 N   0  0  0  0  0  0  0  0  0  0  0  0
   -0.1145    5.7455   -1.9194 C   0  0  0  0  0  0  0  0  0  0  0  0
   -0.6002    6.9594   -2.3216 N   0  0  0  0  0  0  0  0  0  0  0  0
   -1.1443    7.6208   -1.2496 C   0  0  0  0  0  0  0  0  0  0  0  0
   -1.0008    6.8148   -0.1391 C   0  0  0  0  0  0  0  0  0  0  0  0
   -0.3483    5.6217   -0.5533 C   0  0  0  0  0  0  0  0  0  0  0  0
    0.0801    4.4410    0.0765 C   0  0  0  0  0  0  0  0  0  0  0  0
    6.4665    0.7246    2.6541 C   0  0  0  0  0  0  0  0  0  0  0  0
    7.3521   -0.2935    2.2555 C   0  0  0  0  0  0  0  0  0  0  0  0
    7.9832   -1.0762    3.3222 N   0  0  0  0  0  0  0  0  0  0  0  0
    8.2255   -0.4963    4.3913 O   0  0  0  0  0  0  0  0  0  0  0  0
    8.2335   -2.2712    3.0970 O   0  0  0  0  0  0  0  0  0  0  0  0
   10.2897   -0.5725   -1.7898 C   0  0  0  0  0  0  0  0  0  0  0  0
   11.6413   -0.4533   -2.4858 C   0  0  0  0  0  0  0  0  0  0  0  0
   12.7876   -1.1498   -1.7278 C   0  0  1  0  0  0  0  0  0  0  0  0
   13.1675   -0.3737   -0.4604 C   0  0  0  0  0  0  0  0  0  0  0  0
   13.9368   -1.0923   -2.5941 O   0  0  0  0  0  0  0  0  0  0  0  0
   15.1264   -4.2975   -0.5097 H   0  0  0  0  0  0  0  0  0  0  0  0
   14.5272   -3.9689   -2.1476 H   0  0  0  0  0  0  0  0  0  0  0  0
   15.2186   -2.6514   -1.1363 H   0  0  0  0  0  0  0  0  0  0  0  0
   12.3668   -3.1914   -2.3726 H   0  0  0  0  0  0  0  0  0  0  0  0
   11.1195   -2.3520    0.2850 H   0  0  0  0  0  0  0  0  0  0  0  0
   10.7938   -3.8087   -0.6140 H   0  0  0  0  0  0  0  0  0  0  0  0
    9.8307   -2.5457   -2.4834 H   0  0  0  0  0  0  0  0  0  0  0  0
    8.3376   -3.2350   -0.6542 H   0  0  0  0  0  0  0  0  0  0  0  0
    7.7717   -1.8010   -1.4678 H   0  0  0  0  0  0  0  0  0  0  0  0
    8.7740   -2.2025    1.2427 H   0  0  0  0  0  0  0  0  0  0  0  0
    7.2306    0.1817   -1.1107 H   0  0  0  0  0  0  0  0  0  0  0  0
    5.6525    1.8990   -0.4392 H   0  0  0  0  0  0  0  0  0  0  0  0
    5.8978    4.4036    1.4972 H   0  0  0  0  0  0  0  0  0  0  0  0
    2.6405    3.1410    1.3216 H   0  0  0  0  0  0  0  0  0  0  0  0
    0.9227   -0.1593    3.5821 H   0  0  0  0  0  0  0  0  0  0  0  0
   -1.4787   -0.4413    3.3521 H   0  0  0  0  0  0  0  0  0  0  0  0
   -3.1374   -1.4613    2.1701 H   0  0  0  0  0  0  0  0  0  0  0  0
   -4.0001   -0.2102    3.0911 H   0  0  0  0  0  0  0  0  0  0  0  0
   -5.5132   -1.7857    1.8415 H   0  0  0  0  0  0  0  0  0  0  0  0
   -4.7380   -1.3211    0.3310 H   0  0  0  0  0  0  0  0  0  0  0  0
   -5.8005    2.3690    0.6696 H   0  0  0  0  0  0  0  0  0  0  0  0
   -5.1242    1.9423    2.2347 H   0  0  0  0  0  0  0  0  0  0  0  0
   -3.9153    1.1153   -0.4614 H   0  0  0  0  0  0  0  0  0  0  0  0
   -3.3829    2.4502    0.5828 H   0  0  0  0  0  0  0  0  0  0  0  0
   -6.6704   -0.5365   -0.8121 H   0  0  0  0  0  0  0  0  0  0  0  0
   -7.3634    1.0411   -0.3886 H   0  0  0  0  0  0  0  0  0  0  0  0
   -7.8291   -1.6747    1.1483 H   0  0  0  0  0  0  0  0  0  0  0  0
  -11.0539    0.3248    2.0101 H   0  0  0  0  0  0  0  0  0  0  0  0
   -9.6040    0.2928    2.9601 H   0  0  0  0  0  0  0  0  0  0  0  0
   -9.5110   -2.1908    2.8413 H   0  0  0  0  0  0  0  0  0  0  0  0
  -11.0510   -1.6164    3.4832 H   0  0  0  0  0  0  0  0  0  0  0  0
  -12.0028   -4.3152    1.1830 H   0  0  0  0  0  0  0  0  0  0  0  0
  -10.4745   -4.3414    2.0904 H   0  0  0  0  0  0  0  0  0  0  0  0
  -11.9832   -3.8251    2.8733 H   0  0  0  0  0  0  0  0  0  0  0  0
   -9.5262   -2.9396    0.3491 H   0  0  0  0  0  0  0  0  0  0  0  0
  -11.0687   -2.7950   -0.5204 H   0  0  0  0  0  0  0  0  0  0  0  0
  -11.0903   -0.4098   -0.2155 H   0  0  0  0  0  0  0  0  0  0  0  0
  -10.4217    1.3688   -1.5002 H   0  0  0  0  0  0  0  0  0  0  0  0
   -9.6629    2.0859   -3.7194 H   0  0  0  0  0  0  0  0  0  0  0  0
   -8.3206    0.5379   -5.1229 H   0  0  0  0  0  0  0  0  0  0  0  0
   -7.7684   -1.6898   -4.3029 H   0  0  0  0  0  0  0  0  0  0  0  0
   -7.7621   -2.9529   -1.1005 H   0  0  0  0  0  0  0  0  0  0  0  0
   -9.4097   -4.8480   -1.3905 H   0  0  0  0  0  0  0  0  0  0  0  0
  -10.2924   -3.9275   -2.6877 H   0  0  0  0  0  0  0  0  0  0  0  0
   -7.2994   -4.7198   -2.7359 H   0  0  0  0  0  0  0  0  0  0  0  0
   -8.2194   -3.8653   -4.0440 H   0  0  0  0  0  0  0  0  0  0  0  0
   -7.6177    1.2413    2.3131 H   0  0  0  0  0  0  0  0  0  0  0  0
   -7.0722   -0.2601    3.0884 H   0  0  0  0  0  0  0  0  0  0  0  0
   -1.4013    1.7796   -0.3304 H   0  0  0  0  0  0  0  0  0  0  0  0
    1.3687    3.0017   -2.7155 H   0  0  0  0  0  0  0  0  0  0  0  0
   -0.5483    7.2947   -3.2729 H   0  0  0  0  0  0  0  0  0  0  0  0
   -1.5814    8.6032   -1.3694 H   0  0  0  0  0  0  0  0  0  0  0  0
   -1.3298    7.0593    0.8630 H   0  0  0  0  0  0  0  0  0  0  0  0
   -0.0656    4.3046    1.1419 H   0  0  0  0  0  0  0  0  0  0  0  0
    6.2542    0.8985    3.7076 H   0  0  0  0  0  0  0  0  0  0  0  0
    9.5197   -0.1153   -2.4239 H   0  0  0  0  0  0  0  0  0  0  0  0
   10.3122    0.0052   -0.8575 H   0  0  0  0  0  0  0  0  0  0  0  0
   11.8835    0.6053   -2.6435 H   0  0  0  0  0  0  0  0  0  0  0  0
   11.5602   -0.8804   -3.4952 H   0  0  0  0  0  0  0  0  0  0  0  0
   14.0551   -0.8035    0.0171 H   0  0  0  0  0  0  0  0  0  0  0  0
   13.4318    0.6612   -0.7064 H   0  0  0  0  0  0  0  0  0  0  0  0
   12.3600   -0.3513    0.2776 H   0  0  0  0  0  0  0  0  0  0  0  0
   13.7260   -1.5780   -3.4090 H   0  0  0  0  0  0  0  0  0  0  0  0
  1  2  1  0
  2  3  1  0
  3  4  1  0
  4  5  1  0
  5  6  1  0
  6  7  1  0
  7  8  1  0
  8  9  2  0
  9 10  1  0
 10 11  2  0
 11 12  1  0
 12 13  2  0
 12 14  2  0
 12 15  1  0
 15 16  1  0
 16 17  2  0
 16 18  1  0
 18 19  2  0
 19 20  1  0
 20 21  2  0
 21 22  1  0
 22 23  1  0
 23 24  1  0
 24 25  1  0
 25 26  1  0
 26 27  1  0
 25 28  1  0
 28 29  1  0
 29 30  1  0
 30 31  1  0
 31 32  1  0
 32 33  1  0
 33 34  1  0
 33 35  1  0
 35 36  1  0
 36 37  1  0
 37 38  2  0
 38 39  1  0
 39 40  2  0
 40 41  1  0
 41 42  2  0
 42 43  1  0
 43 44  1  0
 44 45  1  0
 29 46  1  0
 21 47  1  0
 47 48  2  0
 48 49  1  0
 49 50  1  0
 50 51  2  0
 51 52  1  0
 52 53  2  0
 53 54  1  0
 54 55  1  0
 55 56  2  0
 56 57  1  0
 57 58  2  0
 11 59  1  0
 59 60  2  0
 60 61  1  0
 61 62  2  0
 61 63  1  0
  5 64  1  0
 64 65  1  0
 65 66  1  0
 66 67  1  0
 66 68  1  6
 66  3  1  0
 60  8  1  0
 48 18  1  0
 58 50  1  0
 27 22  1  0
 36 30  1  0
 42 37  1  0
 45 43  1  0
 57 53  1  0
 46 25  1  0
  1 69  1  0
  1 70  1  0
  1 71  1  0
  3 72  1  0
  4 73  1  0
  4 74  1  0
  5 75  1  6
  6 76  1  0
  6 77  1  0
  7 78  1  0
  9 79  1  0
 10 80  1  0
 13 81  1  0
 15 82  1  0
 19 83  1  0
 20 84  1  0
 23 85  1  0
 23 86  1  0
 24 87  1  0
 24 88  1  0
 26 89  1  0
 26 90  1  0
 27 91  1  0
 27 92  1  0
 28 93  1  0
 28 94  1  0
 29 95  1  0
 31 96  1  0
 31 97  1  0
 32 98  1  0
 32 99  1  0
 34100  1  0
 34101  1  0
 34102  1  0
 35103  1  0
 35104  1  0
 36105  1  6
 38106  1  0
 39107  1  0
 40108  1  0
 41109  1  0
 43110  1  0
 44111  1  0
 44112  1  0
 45113  1  0
 45114  1  0
 46115  1  0
 46116  1  0
 47117  1  0
 51118  1  0
 54119  1  0
 55120  1  0
 56121  1  0
 58122  1  0
 59123  1  0
 64124  1  0
 64125  1  0
 65126  1  0
 65127  1  0
 67128  1  0
 67129  1  0
 67130  1  0
 68131  1  0
M  CHG  2  61   1  63  -1
M  END
$$$$

     RDKit          3D

131140  0  0  0  0  0  0  0  0999 V2000
   13.2621   -2.2021    1.0519 C   0  0  0  0  0  0  0  0  0  0  0  0
   13.0326   -1.0346    0.2735 O   0  0  0  0  0  0  0  0  0  0  0  0
   12.2492   -1.2841   -0.9057 C   0  0  0  0  0  0  0  0  0  0  0  0
   10.7473   -1.2163   -0.5618 C   0  0  0  0  0  0  0  0  0  0  0  0
   10.1061    0.1736   -0.7756 C   0  0  1  0  0  0  0  0  0  0  0  0
    8.8753    0.3265    0.1382 C   0  0  0  0  0  0  0  0  0  0  0  0
    8.1331    1.5410   -0.2013 N   0  0  0  0  0  0  0  0  0  0  0  0
    6.9007    1.8095    0.4179 C   0  0  0  0  0  0  0  0  0  0  0  0
    6.5616    1.2447    1.6598 C   0  0  0  0  0  0  0  0  0  0  0  0
    5.3653    1.5627    2.3187 C   0  0  0  0  0  0  0  0  0  0  0  0
    4.4767    2.4764    1.7563 C   0  0  0  0  0  0  0  0  0  0  0  0
    2.9610    2.8553    2.5977 S   0  0  0  0  0  0  0  0  0  0  0  0
    2.4406    4.1919    2.0489 N   0  0  0  0  0  0  0  0  0  0  0  0
    3.1222    2.5821    4.0068 O   0  0  0  0  0  0  0  0  0  0  0  0
    1.7589    1.8352    2.0643 N   0  0  0  0  0  0  0  0  0  0  0  0
    1.8459    0.4802    2.1463 C   0  0  0  0  0  0  0  0  0  0  0  0
    2.8063   -0.1552    2.5630 O   0  0  0  0  0  0  0  0  0  0  0  0
    0.6354   -0.2567    1.7058 C   0  0  0  0  0  0  0  0  0  0  0  0
    0.2338   -1.3556    2.4631 C   0  0  0  0  0  0  0  0  0  0  0  0
   -0.9222   -2.0672    2.1150 C   0  0  0  0  0  0  0  0  0  0  0  0
   -1.7286   -1.7076    1.0201 C   0  0  0  0  0  0  0  0  0  0  0  0
   -2.8744   -2.4394    0.7087 N   0  0  0  0  0  0  0  0  0  0  0  0
   -3.5914   -2.2362   -0.5616 C   0  0  0  0  0  0  0  0  0  0  0  0
   -4.6734   -1.1624   -0.4050 C   0  0  0  0  0  0  0  0  0  0  0  0
   -5.6179   -1.5320    0.7534 C   0  0  0  0  0  0  0  0  0  0  0  0
   -4.8286   -1.7785    2.0467 C   0  0  0  0  0  0  0  0  0  0  0  0
   -3.7673   -2.8552    1.8088 C   0  0  0  0  0  0  0  0  0  0  0  0
   -6.6956   -2.6107    0.4223 C   0  0  0  0  0  0  0  0  0  0  0  0
   -7.6572   -1.4570    0.0231 C   0  0  0  0  0  0  0  0  0  0  0  0
   -8.9853   -1.7105    0.6012 N   0  0  0  0  0  0  0  0  0  0  0  0
   -9.6413   -2.8371   -0.0861 C   0  0  0  0  0  0  0  0  0  0  0  0
  -11.0738   -3.1160    0.4145 C   0  0  0  0  0  0  0  0  0  0  0  0
  -11.9380   -1.9311    0.3122 N   0  0  0  0  0  0  0  0  0  0  0  0
  -13.2819   -2.2186    0.8054 C   0  0  0  0  0  0  0  0  0  0  0  0
  -11.3251   -0.8209    1.0750 C   0  0  0  0  0  0  0  0  0  0  0  0
   -9.8479   -0.4879    0.6711 C   0  0  2  0  0  0  0  0  0  0  0  0
   -9.8144    0.4794   -0.5264 C   0  0  0  0  0  0  0  0  0  0  0  0
  -10.2368    0.0456   -1.8004 C   0  0  0  0  0  0  0  0  0  0  0  0
  -10.1830    0.8818   -2.9143 C   0  0  0  0  0  0  0  0  0  0  0  0
   -9.7141    2.1782   -2.7780 C   0  0  0  0  0  0  0  0  0  0  0  0
   -9.3326    2.6426   -1.5204 C   0  0  0  0  0  0  0  0  0  0  0  0
   -9.3996    1.8321   -0.3654 C   0  0  0  0  0  0  0  0  0  0  0  0
   -9.0207    2.4387    0.9763 C   0  0  0  0  0  0  0  0  0  0  0  0
  -10.0749    2.6133    2.0496 C   0  0  0  0  0  0  0  0  0  0  0  0
   -9.5103    3.8182    1.3662 C   0  0  0  0  0  0  0  0  0  0  0  0
   -6.8096   -0.5448    0.9438 C   0  0  0  0  0  0  0  0  0  0  0  0
   -1.2750   -0.6259    0.2480 C   0  0  0  0  0  0  0  0  0  0  0  0
   -0.1005    0.0758    0.5658 C   0  0  0  0  0  0  0  0  0  0  0  0
    0.2511    1.0990   -0.2859 O   0  0  0  0  0  0  0  0  0  0  0  0
    1.3931    0.9294   -1.0405 C   0  0  0  0  0  0  0  0  0  0  0  0
    2.0262    2.0921   -1.4756 C   0  0  0  0  0  0  0  0  0  0  0  0
    3.1840    2.1556   -2.1779 N   0  0  0  0  0  0  0  0  0  0  0  0
    3.6776    0.9377   -2.4727 C   0  0  0  0  0  0  0  0  0  0  0  0
    4.8356    0.7147   -3.1680 N   0  0  0  0  0  0  0  0  0  0  0  0
    5.0479   -0.6351   -3.2969 C   0  0  0  0  0  0  0  0  0  0  0  0
    4.0045   -1.2880   -2.6748 C   0  0  0  0  0  0  0  0  0  0  0  0
    3.1352   -0.2986   -2.1390 C   0  0  0  0  0  0  0  0  0  0  0  0
    1.9406   -0.3068   -1.3983 C   0  0  0  0  0  0  0  0  0  0  0  0
    4.8015    3.1121    0.5607 C   0  0  0  0  0  0  0  0  0  0  0  0
    6.0036    2.7791   -0.0880 C   0  0  0  0  0  0  0  0  0  0  0  0
    6.2939    3.4779   -1.3382 N   0  0  0  0  0  0  0  0  0  0  0  0
    6.7656    2.8138   -2.2785 O   0  0  0  0  0  0  0  0  0  0  0  0
    6.0431    4.6912   -1.3851 O   0  0  0  0  0  0  0  0  0  0  0  0
   11.1303    1.2924   -0.5608 C   0  0  0  0  0  0  0  0  0  0  0  0
   12.3282    1.1897   -1.5152 C   0  0  0  0  0  0  0  0  0  0  0  0
   12.6300   -0.2474   -1.9886 C   0  0  1  0  0  0  0  0  0  0  0  0
   14.1070   -0.3737   -2.3813 C   0  0  0  0  0  0  0  0  0  0  0  0
   11.8570   -0.5225   -3.1703 O   0  0  0  0  0  0  0  0  0  0  0  0
   13.8204   -2.9436    0.4722 H   0  0  0  0  0  0  0  0  0  0  0  0
   12.3219   -2.6325    1.4069 H   0  0  0  0  0  0  0  0  0  0  0  0
   13.8644   -1.9186    1.9194 H   0  0  0  0  0  0  0  0  0  0  0  0
   12.4708   -2.2918   -1.2839 H   0  0  0  0  0  0  0  0  0  0  0  0
   10.5865   -1.5413    0.4727 H   0  0  0  0  0  0  0  0  0  0  0  0
   10.2057   -1.9296   -1.1976 H   0  0  0  0  0  0  0  0  0  0  0  0
    9.7591    0.2316   -1.8170 H   0  0  0  0  0  0  0  0  0  0  0  0
    8.2225   -0.5467    0.0063 H   0  0  0  0  0  0  0  0  0  0  0  0
    9.2059    0.3605    1.1833 H   0  0  0  0  0  0  0  0  0  0  0  0
    8.0809    1.6846   -1.2150 H   0  0  0  0  0  0  0  0  0  0  0  0
    7.2197    0.5329    2.1514 H   0  0  0  0  0  0  0  0  0  0  0  0
    5.1328    1.0741    3.2652 H   0  0  0  0  0  0  0  0  0  0  0  0
    3.0191    4.9594    2.3971 H   0  0  0  0  0  0  0  0  0  0  0  0
    0.9229    2.3185    1.7865 H   0  0  0  0  0  0  0  0  0  0  0  0
    0.8156   -1.6701    3.3276 H   0  0  0  0  0  0  0  0  0  0  0  0
   -1.1649   -2.9419    2.7132 H   0  0  0  0  0  0  0  0  0  0  0  0
   -2.9135   -1.9992   -1.3891 H   0  0  0  0  0  0  0  0  0  0  0  0
   -4.0613   -3.1882   -0.8411 H   0  0  0  0  0  0  0  0  0  0  0  0
   -4.2125   -0.1886   -0.2002 H   0  0  0  0  0  0  0  0  0  0  0  0
   -5.2207   -1.0616   -1.3492 H   0  0  0  0  0  0  0  0  0  0  0  0
   -4.3500   -0.8461    2.3727 H   0  0  0  0  0  0  0  0  0  0  0  0
   -5.4944   -2.0968    2.8577 H   0  0  0  0  0  0  0  0  0  0  0  0
   -3.2438   -3.0627    2.7460 H   0  0  0  0  0  0  0  0  0  0  0  0
   -4.2517   -3.7977    1.5230 H   0  0  0  0  0  0  0  0  0  0  0  0
   -6.4508   -3.3065   -0.3862 H   0  0  0  0  0  0  0  0  0  0  0  0
   -7.0020   -3.2012    1.2963 H   0  0  0  0  0  0  0  0  0  0  0  0
   -7.6213   -1.1993   -1.0418 H   0  0  0  0  0  0  0  0  0  0  0  0
   -9.6549   -2.6892   -1.1717 H   0  0  0  0  0  0  0  0  0  0  0  0
   -9.0630   -3.7540    0.0832 H   0  0  0  0  0  0  0  0  0  0  0  0
  -11.0287   -3.4748    1.4519 H   0  0  0  0  0  0  0  0  0  0  0  0
  -11.4929   -3.9286   -0.1915 H   0  0  0  0  0  0  0  0  0  0  0  0
  -13.7440   -3.0154    0.2129 H   0  0  0  0  0  0  0  0  0  0  0  0
  -13.9244   -1.3375    0.7024 H   0  0  0  0  0  0  0  0  0  0  0  0
  -13.2845   -2.5257    1.8568 H   0  0  0  0  0  0  0  0  0  0  0  0
  -11.3289   -1.0782    2.1442 H   0  0  0  0  0  0  0  0  0  0  0  0
  -11.9444    0.0788    0.9661 H   0  0  0  0  0  0  0  0  0  0  0  0
   -9.4516    0.0522    1.5366 H   0  0  0  0  0  0  0  0  0  0  0  0
  -10.6289   -0.9577   -1.9391 H   0  0  0  0  0  0  0  0  0  0  0  0
  -10.5089    0.5156   -3.8847 H   0  0  0  0  0  0  0  0  0  0  0  0
   -9.6636    2.8363   -3.6416 H   0  0  0  0  0  0  0  0  0  0  0  0
   -8.9863    3.6712   -1.4316 H   0  0  0  0  0  0  0  0  0  0  0  0
   -8.0201    2.1928    1.3236 H   0  0  0  0  0  0  0  0  0  0  0  0
  -11.1035    2.3538    1.8261 H   0  0  0  0  0  0  0  0  0  0  0  0
   -9.7838    2.4271    3.0774 H   0  0  0  0  0  0  0  0  0  0  0  0
   -8.8353    4.4538    1.9296 H   0  0  0  0  0  0  0  0  0  0  0  0
  -10.1686    4.3623    0.6981 H   0  0  0  0  0  0  0  0  0  0  0  0
   -7.1546   -0.4677    1.9830 H   0  0  0  0  0  0  0  0  0  0  0  0
   -6.6343    0.4661    0.5640 H   0  0  0  0  0  0  0  0  0  0  0  0
   -1.8246   -0.2966   -0.6285 H   0  0  0  0  0  0  0  0  0  0  0  0
    1.6015    3.0649   -1.2324 H   0  0  0  0  0  0  0  0  0  0  0  0
    5.4423    1.4537   -3.5019 H   0  0  0  0  0  0  0  0  0  0  0  0
    5.9199   -1.0093   -3.8167 H   0  0  0  0  0  0  0  0  0  0  0  0
    3.8833   -2.3609   -2.6061 H   0  0  0  0  0  0  0  0  0  0  0  0
    1.4809   -1.2496   -1.1259 H   0  0  0  0  0  0  0  0  0  0  0  0
    4.1288    3.8424    0.1145 H   0  0  0  0  0  0  0  0  0  0  0  0
   10.6685    2.2790   -0.6844 H   0  0  0  0  0  0  0  0  0  0  0  0
   11.4929    1.2554    0.4754 H   0  0  0  0  0  0  0  0  0  0  0  0
   13.1974    1.6212   -1.0031 H   0  0  0  0  0  0  0  0  0  0  0  0
   12.1327    1.8281   -2.3865 H   0  0  0  0  0  0  0  0  0  0  0  0
   14.3596    0.3336   -3.1798 H   0  0  0  0  0  0  0  0  0  0  0  0
   14.3165   -1.3754   -2.7741 H   0  0  0  0  0  0  0  0  0  0  0  0
   14.7758   -0.1867   -1.5345 H   0  0  0  0  0  0  0  0  0  0  0  0
   12.1195    0.1225   -3.8507 H   0  0  0  0  0  0  0  0  0  0  0  0
  1  2  1  0
  2  3  1  0
  3  4  1  0
  4  5  1  0
  5  6  1  0
  6  7  1  0
  7  8  1  0
  8  9  2  0
  9 10  1  0
 10 11  2  0
 11 12  1  0
 12 13  2  0
 12 14  2  0
 12 15  1  0
 15 16  1  0
 16 17  2  0
 16 18  1  0
 18 19  2  0
 19 20  1  0
 20 21  2  0
 21 22  1  0
 22 23  1  0
 23 24  1  0
 24 25  1  0
 25 26  1  0
 26 27  1  0
 25 28  1  0
 28 29  1  0
 29 30  1  0
 30 31  1  0
 31 32  1  0
 32 33  1  0
 33 34  1  0
 33 35  1  0
 35 36  1  0
 36 37  1  0
 37 38  2  0
 38 39  1  0
 39 40  2  0
 40 41  1  0
 41 42  2  0
 42 43  1  0
 43 44  1  0
 44 45  1  0
 29 46  1  0
 21 47  1  0
 47 48  2  0
 48 49  1  0
 49 50  1  0
 50 51  2  0
 51 52  1  0
 52 53  2  0
 53 54  1  0
 54 55  1  0
 55 56  2  0
 56 57  1  0
 57 58  2  0
 11 59  1  0
 59 60  2  0
 60 61  1  0
 61 62  2  0
 61 63  1  0
  5 64  1  0
 64 65  1  0
 65 66  1  0
 66 67  1  0
 66 68  1  6
 66  3  1  0
 60  8  1  0
 48 18  1  0
 58 50  1  0
 27 22  1  0
 36 30  1  0
 42 37  1  0
 45 43  1  0
 57 53  1  0
 46 25  1  0
  1 69  1  0
  1 70  1  0
  1 71  1  0
  3 72  1  0
  4 73  1  0
  4 74  1  0
  5 75  1  6
  6 76  1  0
  6 77  1  0
  7 78  1  0
  9 79  1  0
 10 80  1  0
 13 81  1  0
 15 82  1  0
 19 83  1  0
 20 84  1  0
 23 85  1  0
 23 86  1  0
 24 87  1  0
 24 88  1  0
 26 89  1  0
 26 90  1  0
 27 91  1  0
 27 92  1  0
 28 93  1  0
 28 94  1  0
 29 95  1  0
 31 96  1  0
 31 97  1  0
 32 98  1  0
 32 99  1  0
 34100  1  0
 34101  1  0
 34102  1  0
 35103  1  0
 35104  1  0
 36105  1  1
 38106  1  0
 39107  1  0
 40108  1  0
 41109  1  0
 43110  1  0
 44111  1  0
 44112  1  0
 45113  1  0
 45114  1  0
 46115  1  0
 46116  1  0
 47117  1  0
 51118  1  0
 54119  1  0
 55120  1  0
 56121  1  0
 58122  1  0
 59123  1  0
 64124  1  0
 64125  1  0
 65126  1  0
 65127  1  0
 67128  1  0
 67129  1  0
 67130  1  0
 68131  1  0
M  CHG  2  61   1  63  -1
M  END
$$$$
