
     RDKit          3D

127135  0  0  0  0  0  0  0  0999 V2000
   -9.2999   -0.7595   -5.0550 C   0  0  0  0  0  0  0  0  0  0  0  0
   -8.1859   -0.4353   -4.0516 C   0  0  0  0  0  0  0  0  0  0  0  0
   -6.8782   -0.1133   -4.7830 C   0  0  0  0  0  0  0  0  0  0  0  0
   -7.9971   -1.5557   -3.0320 C   0  0  0  0  0  0  0  0  0  0  0  0
   -7.6530   -2.8404   -3.5084 C   0  0  0  0  0  0  0  0  0  0  0  0
   -7.4576   -3.9174   -2.6449 C   0  0  0  0  0  0  0  0  0  0  0  0
   -7.5991   -3.7384   -1.2778 C   0  0  0  0  0  0  0  0  0  0  0  0
   -7.9332   -2.4815   -0.7783 C   0  0  0  0  0  0  0  0  0  0  0  0
   -8.1342   -1.3714   -1.6318 C   0  0  0  0  0  0  0  0  0  0  0  0
   -8.5014   -0.0447   -0.9472 C   0  0  2  0  0  0  0  0  0  0  0  0
  -10.0271    0.2319   -1.1667 C   0  0  0  0  0  0  0  0  0  0  0  0
  -10.4770    1.5104   -0.5786 N   0  0  0  0  0  0  0  0  0  0  0  0
  -11.8846    1.7527   -0.8865 C   0  0  0  0  0  0  0  0  0  0  0  0
   -9.6311    2.5908   -1.1072 C   0  0  0  0  0  0  0  0  0  0  0  0
   -8.1381    2.3623   -0.7748 C   0  0  0  0  0  0  0  0  0  0  0  0
   -7.6061    1.0961   -1.3089 N   0  0  0  0  0  0  0  0  0  0  0  0
   -6.2019    0.7769   -0.9849 C   0  0  0  0  0  0  0  0  0  0  0  0
   -5.2169    1.9571   -1.1134 C   0  0  0  0  0  0  0  0  0  0  0  0
   -4.5018    1.4119    0.1751 C   0  0  0  0  0  0  0  0  0  0  0  0
   -3.3507    0.4382   -0.1368 C   0  0  0  0  0  0  0  0  0  0  0  0
   -2.3990    0.3213    1.0527 C   0  0  0  0  0  0  0  0  0  0  0  0
   -1.8111    1.6328    1.3583 N   0  0  0  0  0  0  0  0  0  0  0  0
   -0.5543    1.7435    1.9309 C   0  0  0  0  0  0  0  0  0  0  0  0
    0.2064    2.9181    1.8228 C   0  0  0  0  0  0  0  0  0  0  0  0
    1.4776    3.0407    2.4023 C   0  0  0  0  0  0  0  0  0  0  0  0
    2.0410    1.9802    3.1181 C   0  0  0  0  0  0  0  0  0  0  0  0
    3.3923    2.1923    3.7067 C   0  0  0  0  0  0  0  0  0  0  0  0
    4.1312    3.0547    3.2580 O   0  0  0  0  0  0  0  0  0  0  0  0
    3.7520    1.3420    4.7546 N   0  0  0  0  0  0  0  0  0  0  0  0
    5.2343    1.2871    5.4963 S   0  0  0  0  0  0  0  0  0  0  0  0
    5.6177    2.6103    5.9302 O   0  0  0  0  0  0  0  0  0  0  0  0
    5.1497    0.1893    6.4375 O   0  0  0  0  0  0  0  0  0  0  0  0
    6.3143    0.7720    4.1835 C   0  0  0  0  0  0  0  0  0  0  0  0
    6.9539    1.7303    3.3995 C   0  0  0  0  0  0  0  0  0  0  0  0
    7.8136    1.3334    2.3670 C   0  0  0  0  0  0  0  0  0  0  0  0
    8.0547   -0.0215    2.0796 C   0  0  0  0  0  0  0  0  0  0  0  0
    8.9792   -0.4063    1.0935 N   0  0  0  0  0  0  0  0  0  0  0  0
    9.3087    0.5048   -0.0025 C   0  0  0  0  0  0  0  0  0  0  0  0
   10.1948   -0.2033   -1.0519 C   0  0  1  0  0  0  0  0  0  0  0  0
    9.4337   -1.2538   -1.8829 C   0  0  0  0  0  0  0  0  0  0  0  0
    8.4435   -0.6382   -2.8775 C   0  0  0  0  0  0  0  0  0  0  0  0
    9.1141    0.3966   -3.7898 C   0  0  2  0  0  0  0  0  0  0  0  0
    8.1347    1.0023   -4.6624 N   0  0  0  0  0  0  0  0  0  0  0  0
   10.0229   -0.2564   -4.6428 O   0  0  0  0  0  0  0  0  0  0  0  0
    9.8689    1.4548   -2.9758 C   0  0  0  0  0  0  0  0  0  0  0  0
   10.8571    0.8204   -1.9915 C   0  0  0  0  0  0  0  0  0  0  0  0
    7.4393   -0.9622    2.9418 C   0  0  0  0  0  0  0  0  0  0  0  0
    7.6970   -2.3923    2.7799 N   0  0  0  0  0  0  0  0  0  0  0  0
    7.7881   -2.8379    1.6231 O   0  0  0  0  0  0  0  0  0  0  0  0
    7.7955   -3.0747    3.8099 O   0  0  0  0  0  0  0  0  0  0  0  0
    6.5682   -0.5824    3.9789 C   0  0  0  0  0  0  0  0  0  0  0  0
    1.3110    0.7921    3.2134 C   0  0  0  0  0  0  0  0  0  0  0  0
    1.7757   -0.3035    3.9003 O   0  0  0  0  0  0  0  0  0  0  0  0
    2.5218   -1.2355    3.2096 C   0  0  0  0  0  0  0  0  0  0  0  0
    2.9400   -1.1446    1.8822 C   0  0  0  0  0  0  0  0  0  0  0  0
    3.7226   -2.0434    1.2346 N   0  0  0  0  0  0  0  0  0  0  0  0
    4.0571   -3.0960    2.0022 C   0  0  0  0  0  0  0  0  0  0  0  0
    4.8328   -4.1450    1.5897 N   0  0  0  0  0  0  0  0  0  0  0  0
    4.9854   -5.0396    2.6188 C   0  0  0  0  0  0  0  0  0  0  0  0
    4.2967   -4.5530    3.7101 C   0  0  0  0  0  0  0  0  0  0  0  0
    3.7045   -3.3202    3.3282 C   0  0  0  0  0  0  0  0  0  0  0  0
    2.9114   -2.3495    3.9588 C   0  0  0  0  0  0  0  0  0  0  0  0
    0.0304    0.6875    2.6454 C   0  0  0  0  0  0  0  0  0  0  0  0
   -2.6249    2.8249    1.0817 C   0  0  0  0  0  0  0  0  0  0  0  0
   -4.1089    2.4837    1.2001 C   0  0  0  0  0  0  0  0  0  0  0  0
   -5.8688    0.7267    0.5204 C   0  0  0  0  0  0  0  0  0  0  0  0
   -9.4888    0.1005   -5.7070 H   0  0  0  0  0  0  0  0  0  0  0  0
   -9.0455   -1.6088   -5.6977 H   0  0  0  0  0  0  0  0  0  0  0  0
  -10.2356   -0.9990   -4.5379 H   0  0  0  0  0  0  0  0  0  0  0  0
   -8.4964    0.4845   -3.5537 H   0  0  0  0  0  0  0  0  0  0  0  0
   -6.5312   -0.9528   -5.3949 H   0  0  0  0  0  0  0  0  0  0  0  0
   -7.0126    0.7468   -5.4480 H   0  0  0  0  0  0  0  0  0  0  0  0
   -6.0807    0.1343   -4.0744 H   0  0  0  0  0  0  0  0  0  0  0  0
   -7.5294   -3.0143   -4.5757 H   0  0  0  0  0  0  0  0  0  0  0  0
   -7.1946   -4.8932   -3.0441 H   0  0  0  0  0  0  0  0  0  0  0  0
   -7.4495   -4.5733   -0.5989 H   0  0  0  0  0  0  0  0  0  0  0  0
   -8.0368   -2.3690    0.2998 H   0  0  0  0  0  0  0  0  0  0  0  0
   -8.3932   -0.1849    0.1389 H   0  0  0  0  0  0  0  0  0  0  0  0
  -10.2706    0.2132   -2.2357 H   0  0  0  0  0  0  0  0  0  0  0  0
  -10.5956   -0.5868   -0.7051 H   0  0  0  0  0  0  0  0  0  0  0  0
  -12.0713    1.8178   -1.9646 H   0  0  0  0  0  0  0  0  0  0  0  0
  -12.2226    2.6858   -0.4222 H   0  0  0  0  0  0  0  0  0  0  0  0
  -12.5101    0.9522   -0.4763 H   0  0  0  0  0  0  0  0  0  0  0  0
   -9.7516    2.6885   -2.1949 H   0  0  0  0  0  0  0  0  0  0  0  0
   -9.9348    3.5454   -0.6599 H   0  0  0  0  0  0  0  0  0  0  0  0
   -7.6038    3.2094   -1.2149 H   0  0  0  0  0  0  0  0  0  0  0  0
   -8.0233    2.4255    0.3123 H   0  0  0  0  0  0  0  0  0  0  0  0
   -5.8190   -0.0962   -1.5296 H   0  0  0  0  0  0  0  0  0  0  0  0
   -4.6187    1.9536   -2.0309 H   0  0  0  0  0  0  0  0  0  0  0  0
   -5.6014    2.9720   -0.9847 H   0  0  0  0  0  0  0  0  0  0  0  0
   -2.7834    0.8026   -1.0035 H   0  0  0  0  0  0  0  0  0  0  0  0
   -3.7294   -0.5550   -0.4040 H   0  0  0  0  0  0  0  0  0  0  0  0
   -1.6216   -0.4025    0.7799 H   0  0  0  0  0  0  0  0  0  0  0  0
   -2.9280   -0.0607    1.9340 H   0  0  0  0  0  0  0  0  0  0  0  0
   -0.1713    3.7683    1.2590 H   0  0  0  0  0  0  0  0  0  0  0  0
    2.0197    3.9785    2.2859 H   0  0  0  0  0  0  0  0  0  0  0  0
    3.1094    0.6402    5.1110 H   0  0  0  0  0  0  0  0  0  0  0  0
    6.7885    2.7925    3.5793 H   0  0  0  0  0  0  0  0  0  0  0  0
    8.2983    2.1221    1.7972 H   0  0  0  0  0  0  0  0  0  0  0  0
    8.8022   -1.3634    0.7720 H   0  0  0  0  0  0  0  0  0  0  0  0
    8.3930    0.8906   -0.4636 H   0  0  0  0  0  0  0  0  0  0  0  0
    9.8683    1.3555    0.4043 H   0  0  0  0  0  0  0  0  0  0  0  0
   10.9978   -0.7235   -0.5118 H   0  0  0  0  0  0  0  0  0  0  0  0
    8.9023   -1.9594   -1.2358 H   0  0  0  0  0  0  0  0  0  0  0  0
   10.1658   -1.8528   -2.4406 H   0  0  0  0  0  0  0  0  0  0  0  0
    7.6113   -0.1827   -2.3269 H   0  0  0  0  0  0  0  0  0  0  0  0
    8.0193   -1.4533   -3.4785 H   0  0  0  0  0  0  0  0  0  0  0  0
    8.6131    1.6946   -5.2386 H   0  0  0  0  0  0  0  0  0  0  0  0
    7.4614    1.5269   -4.1062 H   0  0  0  0  0  0  0  0  0  0  0  0
    9.4534   -0.6308   -5.3371 H   0  0  0  0  0  0  0  0  0  0  0  0
   10.4363    2.1136   -3.6461 H   0  0  0  0  0  0  0  0  0  0  0  0
    9.1632    2.0885   -2.4242 H   0  0  0  0  0  0  0  0  0  0  0  0
   11.6530    0.3188   -2.5571 H   0  0  0  0  0  0  0  0  0  0  0  0
   11.3483    1.6087   -1.4085 H   0  0  0  0  0  0  0  0  0  0  0  0
    6.1048   -1.3337    4.6158 H   0  0  0  0  0  0  0  0  0  0  0  0
    2.6596   -0.3041    1.2526 H   0  0  0  0  0  0  0  0  0  0  0  0
    5.2494   -4.2122    0.6720 H   0  0  0  0  0  0  0  0  0  0  0  0
    5.5830   -5.9324    2.4897 H   0  0  0  0  0  0  0  0  0  0  0  0
    4.2382   -5.0308    4.6796 H   0  0  0  0  0  0  0  0  0  0  0  0
    2.6139   -2.4647    4.9961 H   0  0  0  0  0  0  0  0  0  0  0  0
   -0.5143   -0.2423    2.7902 H   0  0  0  0  0  0  0  0  0  0  0  0
   -2.4136    3.6220    1.8045 H   0  0  0  0  0  0  0  0  0  0  0  0
   -2.3946    3.2024    0.0784 H   0  0  0  0  0  0  0  0  0  0  0  0
   -4.3055    2.1134    2.2153 H   0  0  0  0  0  0  0  0  0  0  0  0
   -4.7128    3.3901    1.0780 H   0  0  0  0  0  0  0  0  0  0  0  0
   -6.4963    1.3195    1.1931 H   0  0  0  0  0  0  0  0  0  0  0  0
   -5.7976   -0.2809    0.9440 H   0  0  0  0  0  0  0  0  0  0  0  0
  1  2  1  0
  2  3  1  0
  2  4  1  0
  4  5  2  0
  5  6  1  0
  6  7  2  0
  7  8  1  0
  8  9  2  0
  9 10  1  0
 10 11  1  0
 11 12  1  0
 12 13  1  0
 12 14  1  0
 14 15  1  0
 15 16  1  0
 16 17  1  0
 17 18  1  0
 18 19  1  0
 19 20  1  0
 20 21  1  0
 21 22  1  0
 22 23  1  0
 23 24  2  0
 24 25  1  0
 25 26  2  0
 26 27  1  0
 27 28  2  0
 27 29  1  0
 29 30  1  0
 30 31  2  0
 30 32  2  0
 30 33  1  0
 33 34  2  0
 34 35  1  0
 35 36  2  0
 36 37  1  0
 37 38  1  0
 38 39  1  0
 39 40  1  0
 40 41  1  0
 41 42  1  0
 42 43  1  0
 42 44  1  6
 42 45  1  0
 45 46  1  0
 36 47  1  0
 47 48  1  0
 48 49  2  0
 48 50  1  0
 47 51  2  0
 26 52  1  0
 52 53  1  0
 53 54  1  0
 54 55  2  0
 55 56  1  0
 56 57  2  0
 57 58  1  0
 58 59  1  0
 59 60  2  0
 60 61  1  0
 61 62  2  0
 52 63  2  0
 22 64  1  0
 64 65  1  0
 19 66  1  0
  9  4  1  0
 16 10  1  0
 66 17  1  0
 65 19  1  0
 63 23  1  0
 51 33  1  0
 62 54  1  0
 46 39  1  0
 61 57  1  0
  1 67  1  0
  1 68  1  0
  1 69  1  0
  2 70  1  0
  3 71  1  0
  3 72  1  0
  3 73  1  0
  5 74  1  0
  6 75  1  0
  7 76  1  0
  8 77  1  0
 10 78  1  1
 11 79  1  0
 11 80  1  0
 13 81  1  0
 13 82  1  0
 13 83  1  0
 14 84  1  0
 14 85  1  0
 15 86  1  0
 15 87  1  0
 17 88  1  0
 18 89  1  0
 18 90  1  0
 20 91  1  0
 20 92  1  0
 21 93  1  0
 21 94  1  0
 24 95  1  0
 25 96  1  0
 29 97  1  0
 34 98  1  0
 35 99  1  0
 37100  1  0
 38101  1  0
 38102  1  0
 39103  1  1
 40104  1  0
 40105  1  0
 41106  1  0
 41107  1  0
 43108  1  0
 43109  1  0
 44110  1  0
 45111  1  0
 45112  1  0
 46113  1  0
 46114  1  0
 51115  1  0
 55116  1  0
 58117  1  0
 59118  1  0
 60119  1  0
 62120  1  0
 63121  1  0
 64122  1  0
 64123  1  0
 65124  1  0
 65125  1  0
 66126  1  0
 66127  1  0
M  CHG  2  48   1  50  -1
M  END
$$$$

     RDKit          3D

127135  0  0  0  0  0  0  0  0999 V2000
   -3.4664   -2.0263   -2.3007 C   0  0  0  0  0  0  0  0  0  0  0  0
   -4.4062   -0.9837   -2.9125 C   0  0  0  0  0  0  0  0  0  0  0  0
   -4.0848   -0.7821   -4.4014 C   0  0  0  0  0  0  0  0  0  0  0  0
   -4.3609    0.3159   -2.1040 C   0  0  0  0  0  0  0  0  0  0  0  0
   -3.2315    1.1505   -2.2639 C   0  0  0  0  0  0  0  0  0  0  0  0
   -3.1035    2.3487   -1.5699 C   0  0  0  0  0  0  0  0  0  0  0  0
   -4.1014    2.7396   -0.6957 C   0  0  0  0  0  0  0  0  0  0  0  0
   -5.2267    1.9312   -0.5158 C   0  0  0  0  0  0  0  0  0  0  0  0
   -5.3859    0.7038   -1.1889 C   0  0  0  0  0  0  0  0  0  0  0  0
   -6.6416   -0.1695   -0.9709 C   0  0  2  0  0  0  0  0  0  0  0  0
   -7.6881    0.0328   -2.1281 C   0  0  0  0  0  0  0  0  0  0  0  0
   -8.8045    0.9735   -1.9161 N   0  0  0  0  0  0  0  0  0  0  0  0
   -8.4174    2.3590   -2.1483 C   0  0  0  0  0  0  0  0  0  0  0  0
   -9.3768    0.7689   -0.5790 C   0  0  0  0  0  0  0  0  0  0  0  0
   -8.3515    0.7524    0.5734 C   0  0  0  0  0  0  0  0  0  0  0  0
   -7.2842   -0.2357    0.3737 N   0  0  0  0  0  0  0  0  0  0  0  0
   -6.3656   -0.2786    1.5132 C   0  0  0  0  0  0  0  0  0  0  0  0
   -6.9973   -1.1074    2.6679 C   0  0  0  0  0  0  0  0  0  0  0  0
   -5.5821   -1.7387    2.8983 C   0  0  0  0  0  0  0  0  0  0  0  0
   -5.5446   -3.2358    3.2188 C   0  0  0  0  0  0  0  0  0  0  0  0
   -4.1151   -3.7664    2.9963 C   0  0  0  0  0  0  0  0  0  0  0  0
   -3.0888   -2.7746    3.4036 N   0  0  0  0  0  0  0  0  0  0  0  0
   -2.1488   -2.3947    2.4426 C   0  0  0  0  0  0  0  0  0  0  0  0
   -1.5725   -3.3454    1.5825 C   0  0  0  0  0  0  0  0  0  0  0  0
   -0.7055   -2.9820    0.5429 C   0  0  0  0  0  0  0  0  0  0  0  0
   -0.3738   -1.6407    0.3364 C   0  0  0  0  0  0  0  0  0  0  0  0
    0.4455   -1.3046   -0.8559 C   0  0  0  0  0  0  0  0  0  0  0  0
    1.2614   -2.0981   -1.2955 O   0  0  0  0  0  0  0  0  0  0  0  0
    0.1944   -0.0497   -1.4188 N   0  0  0  0  0  0  0  0  0  0  0  0
    0.9371    0.5969   -2.7504 S   0  0  0  0  0  0  0  0  0  0  0  0
    0.3290    1.9004   -2.9155 O   0  0  0  0  0  0  0  0  0  0  0  0
    0.9354   -0.3618   -3.8304 O   0  0  0  0  0  0  0  0  0  0  0  0
    2.6045    0.8577   -2.2030 C   0  0  0  0  0  0  0  0  0  0  0  0
    3.5326   -0.1759   -2.2968 C   0  0  0  0  0  0  0  0  0  0  0  0
    4.8504    0.0224   -1.8610 C   0  0  0  0  0  0  0  0  0  0  0  0
    5.2777    1.2434   -1.3091 C   0  0  0  0  0  0  0  0  0  0  0  0
    6.6164    1.4540   -0.9422 N   0  0  0  0  0  0  0  0  0  0  0  0
    7.5029    0.3208   -0.6861 C   0  0  0  0  0  0  0  0  0  0  0  0
    8.8638    0.8154   -0.1575 C   0  0  1  0  0  0  0  0  0  0  0  0
    9.6892   -0.3879    0.3424 C   0  0  0  0  0  0  0  0  0  0  0  0
   11.1758   -0.0523    0.3882 C   0  0  0  0  0  0  0  0  0  0  0  0
   11.7311    0.2431   -1.0164 C   0  0  2  0  0  0  0  0  0  0  0  0
   12.2735   -0.9541   -1.6211 N   0  0  0  0  0  0  0  0  0  0  0  0
   12.8238    1.1289   -0.8980 O   0  0  0  0  0  0  0  0  0  0  0  0
   10.6706    0.8405   -1.9611 C   0  0  0  0  0  0  0  0  0  0  0  0
    9.6351    1.6636   -1.1956 C   0  0  0  0  0  0  0  0  0  0  0  0
    4.3248    2.2899   -1.2962 C   0  0  0  0  0  0  0  0  0  0  0  0
    4.6884    3.6235   -0.8117 N   0  0  0  0  0  0  0  0  0  0  0  0
    4.1953    4.5976   -1.3995 O   0  0  0  0  0  0  0  0  0  0  0  0
    5.4619    3.7022    0.1602 O   0  0  0  0  0  0  0  0  0  0  0  0
    3.0005    2.1093   -1.7353 C   0  0  0  0  0  0  0  0  0  0  0  0
   -0.8595   -0.6921    1.2372 C   0  0  0  0  0  0  0  0  0  0  0  0
   -0.5767    0.6493    1.1315 O   0  0  0  0  0  0  0  0  0  0  0  0
    0.6470    1.0850    1.5923 C   0  0  0  0  0  0  0  0  0  0  0  0
    1.0310    2.3577    1.1749 C   0  0  0  0  0  0  0  0  0  0  0  0
    2.1999    2.9745    1.4673 N   0  0  0  0  0  0  0  0  0  0  0  0
    2.9887    2.2351    2.2683 C   0  0  0  0  0  0  0  0  0  0  0  0
    4.2225    2.6250    2.7172 N   0  0  0  0  0  0  0  0  0  0  0  0
    4.7568    1.6427    3.5132 C   0  0  0  0  0  0  0  0  0  0  0  0
    3.8499    0.6055    3.5710 C   0  0  0  0  0  0  0  0  0  0  0  0
    2.7274    0.9692    2.7778 C   0  0  0  0  0  0  0  0  0  0  0  0
    1.5050    0.3661    2.4294 C   0  0  0  0  0  0  0  0  0  0  0  0
   -1.7285   -1.0677    2.2715 C   0  0  0  0  0  0  0  0  0  0  0  0
   -3.5467   -1.8199    4.4197 C   0  0  0  0  0  0  0  0  0  0  0  0
   -4.7012   -0.9543    3.8929 C   0  0  0  0  0  0  0  0  0  0  0  0
   -5.3421   -1.4275    1.3815 C   0  0  0  0  0  0  0  0  0  0  0  0
   -3.5615   -2.9851   -2.8207 H   0  0  0  0  0  0  0  0  0  0  0  0
   -2.4179   -1.7130   -2.3715 H   0  0  0  0  0  0  0  0  0  0  0  0
   -3.6931   -2.1939   -1.2438 H   0  0  0  0  0  0  0  0  0  0  0  0
   -5.4149   -1.4000   -2.9007 H   0  0  0  0  0  0  0  0  0  0  0  0
   -4.6890    0.0240   -4.8311 H   0  0  0  0  0  0  0  0  0  0  0  0
   -3.0289   -0.5436   -4.5712 H   0  0  0  0  0  0  0  0  0  0  0  0
   -4.3001   -1.6978   -4.9622 H   0  0  0  0  0  0  0  0  0  0  0  0
   -2.4351    0.8771   -2.9540 H   0  0  0  0  0  0  0  0  0  0  0  0
   -2.2339    2.9795   -1.7312 H   0  0  0  0  0  0  0  0  0  0  0  0
   -4.0172    3.6801   -0.1568 H   0  0  0  0  0  0  0  0  0  0  0  0
   -5.9837    2.2874    0.1754 H   0  0  0  0  0  0  0  0  0  0  0  0
   -6.2913   -1.1980   -1.0972 H   0  0  0  0  0  0  0  0  0  0  0  0
   -7.1887    0.2579   -3.0807 H   0  0  0  0  0  0  0  0  0  0  0  0
   -8.1628   -0.9463   -2.2915 H   0  0  0  0  0  0  0  0  0  0  0  0
   -7.9712    2.4761   -3.1434 H   0  0  0  0  0  0  0  0  0  0  0  0
   -7.7124    2.7468   -1.4126 H   0  0  0  0  0  0  0  0  0  0  0  0
   -9.3030    3.0014   -2.1279 H   0  0  0  0  0  0  0  0  0  0  0  0
   -9.9104   -0.1906   -0.5824 H   0  0  0  0  0  0  0  0  0  0  0  0
  -10.1425    1.5271   -0.3761 H   0  0  0  0  0  0  0  0  0  0  0  0
   -8.9021    0.5112    1.4917 H   0  0  0  0  0  0  0  0  0  0  0  0
   -7.9494    1.7595    0.7187 H   0  0  0  0  0  0  0  0  0  0  0  0
   -5.9433    0.6765    1.8424 H   0  0  0  0  0  0  0  0  0  0  0  0
   -7.7595   -1.8344    2.3619 H   0  0  0  0  0  0  0  0  0  0  0  0
   -7.4031   -0.5191    3.4966 H   0  0  0  0  0  0  0  0  0  0  0  0
   -6.2455   -3.8040    2.5951 H   0  0  0  0  0  0  0  0  0  0  0  0
   -5.8514   -3.4043    4.2590 H   0  0  0  0  0  0  0  0  0  0  0  0
   -4.0314   -4.0302    1.9356 H   0  0  0  0  0  0  0  0  0  0  0  0
   -3.9720   -4.6907    3.5676 H   0  0  0  0  0  0  0  0  0  0  0  0
   -1.8033   -4.4014    1.7078 H   0  0  0  0  0  0  0  0  0  0  0  0
   -0.3189   -3.7535   -0.1201 H   0  0  0  0  0  0  0  0  0  0  0  0
   -0.5287    0.5532   -1.0353 H   0  0  0  0  0  0  0  0  0  0  0  0
    3.2448   -1.1428   -2.7050 H   0  0  0  0  0  0  0  0  0  0  0  0
    5.5362   -0.8148   -1.9687 H   0  0  0  0  0  0  0  0  0  0  0  0
    6.6966    2.1850   -0.2281 H   0  0  0  0  0  0  0  0  0  0  0  0
    7.6631   -0.2534   -1.6060 H   0  0  0  0  0  0  0  0  0  0  0  0
    7.0453   -0.3369    0.0623 H   0  0  0  0  0  0  0  0  0  0  0  0
    8.6697    1.4697    0.7052 H   0  0  0  0  0  0  0  0  0  0  0  0
    9.5317   -1.2608   -0.3032 H   0  0  0  0  0  0  0  0  0  0  0  0
    9.3409   -0.6752    1.3418 H   0  0  0  0  0  0  0  0  0  0  0  0
   11.7288   -0.8767    0.8589 H   0  0  0  0  0  0  0  0  0  0  0  0
   11.3339    0.8107    1.0511 H   0  0  0  0  0  0  0  0  0  0  0  0
   12.6846   -0.6739   -2.5102 H   0  0  0  0  0  0  0  0  0  0  0  0
   13.0800   -1.2227   -1.0557 H   0  0  0  0  0  0  0  0  0  0  0  0
   12.4815    1.9689   -0.5489 H   0  0  0  0  0  0  0  0  0  0  0  0
   11.1482    1.4747   -2.7189 H   0  0  0  0  0  0  0  0  0  0  0  0
   10.1333    0.0474   -2.4982 H   0  0  0  0  0  0  0  0  0  0  0  0
    8.9519    2.1420   -1.9058 H   0  0  0  0  0  0  0  0  0  0  0  0
   10.1463    2.4833   -0.6724 H   0  0  0  0  0  0  0  0  0  0  0  0
    2.2927    2.9358   -1.7004 H   0  0  0  0  0  0  0  0  0  0  0  0
    0.3697    2.9435    0.5384 H   0  0  0  0  0  0  0  0  0  0  0  0
    4.6620    3.4974    2.4582 H   0  0  0  0  0  0  0  0  0  0  0  0
    5.7294    1.7707    3.9681 H   0  0  0  0  0  0  0  0  0  0  0  0
    3.9800   -0.3177    4.1227 H   0  0  0  0  0  0  0  0  0  0  0  0
    1.2585   -0.6156    2.8169 H   0  0  0  0  0  0  0  0  0  0  0  0
   -2.0979   -0.2760    2.9128 H   0  0  0  0  0  0  0  0  0  0  0  0
   -2.7329   -1.2015    4.8171 H   0  0  0  0  0  0  0  0  0  0  0  0
   -3.9022   -2.3970    5.2856 H   0  0  0  0  0  0  0  0  0  0  0  0
   -4.3098   -0.0396    3.4306 H   0  0  0  0  0  0  0  0  0  0  0  0
   -5.2976   -0.6286    4.7533 H   0  0  0  0  0  0  0  0  0  0  0  0
   -4.3378   -1.1089    1.0950 H   0  0  0  0  0  0  0  0  0  0  0  0
   -5.6338   -2.2592    0.7281 H   0  0  0  0  0  0  0  0  0  0  0  0
  1  2  1  0
  2  3  1  0
  2  4  1  0
  4  5  2  0
  5  6  1  0
  6  7  2  0
  7  8  1  0
  8  9  2  0
  9 10  1  0
 10 11  1  0
 11 12  1  0
 12 13  1  0
 12 14  1  0
 14 15  1  0
 15 16  1  0
 16 17  1  0
 17 18  1  0
 18 19  1  0
 19 20  1  0
 20 21  1  0
 21 22  1  0
 22 23  1  0
 23 24  2  0
 24 25  1  0
 25 26  2  0
 26 27  1  0
 27 28  2  0
 27 29  1  0
 29 30  1  0
 30 31  2  0
 30 32  2  0
 30 33  1  0
 33 34  2  0
 34 35  1  0
 35 36  2  0
 36 37  1  0
 37 38  1  0
 38 39  1  0
 39 40  1  0
 40 41  1  0
 41 42  1  0
 42 43  1  0
 42 44  1  1
 42 45  1  0
 45 46  1  0
 36 47  1  0
 47 48  1  0
 48 49  2  0
 48 50  1  0
 47 51  2  0
 26 52  1  0
 52 53  1  0
 53 54  1  0
 54 55  2  0
 55 56  1  0
 56 57  2  0
 57 58  1  0
 58 59  1  0
 59 60  2  0
 60 61  1  0
 61 62  2  0
 52 63  2  0
 22 64  1  0
 64 65  1  0
 19 66  1  0
  9  4  1  0
 16 10  1  0
 66 17  1  0
 65 19  1  0
 63 23  1  0
 51 33  1  0
 62 54  1  0
 46 39  1  0
 61 57  1  0
  1 67  1  0
  1 68  1  0
  1 69  1  0
  2 70  1  0
  3 71  1  0
  3 72  1  0
  3 73  1  0
  5 74  1  0
  6 75  1  0
  7 76  1  0
  8 77  1  0
 10 78  1  6
 11 79  1  0
 11 80  1  0
 13 81  1  0
 13 82  1  0
 13 83  1  0
 14 84  1  0
 14 85  1  0
 15 86  1  0
 15 87  1  0
 17 88  1  0
 18 89  1  0
 18 90  1  0
 20 91  1  0
 20 92  1  0
 21 93  1  0
 21 94  1  0
 24 95  1  0
 25 96  1  0
 29 97  1  0
 34 98  1  0
 35 99  1  0
 37100  1  0
 38101  1  0
 38102  1  0
 39103  1  1
 40104  1  0
 40105  1  0
 41106  1  0
 41107  1  0
 43108  1  0
 43109  1  0
 44110  1  0
 45111  1  0
 45112  1  0
 46113  1  0
 46114  1  0
 51115  1  0
 55116  1  0
 58117  1  0
 59118  1  0
 60119  1  0
 62120  1  0
 63121  1  0
 64122  1  0
 64123  1  0
 65124  1  0
 65125  1  0
 66126  1  0
 66127  1  0
M  CHG  2  48   1  50  -1
M  END
$$$$

     RDKit          3D

127135  0  0  0  0  0  0  0  0999 V2000
   -8.1168   -3.1475   -1.5943 C   0  0  0  0  0  0  0  0  0  0  0  0
   -8.8665   -1.9167   -1.0766 C   0  0  0  0  0  0  0  0  0  0  0  0
  -10.2985   -2.2863   -0.6658 C   0  0  0  0  0  0  0  0  0  0  0  0
   -8.8291   -0.7779   -2.0991 C   0  0  0  0  0  0  0  0  0  0  0  0
   -9.5776   -0.9412   -3.2876 C   0  0  0  0  0  0  0  0  0  0  0  0
   -9.6299    0.0496   -4.2627 C   0  0  0  0  0  0  0  0  0  0  0  0
   -8.9340    1.2301   -4.0717 C   0  0  0  0  0  0  0  0  0  0  0  0
   -8.1746    1.4099   -2.9146 C   0  0  0  0  0  0  0  0  0  0  0  0
   -8.0784    0.4214   -1.9145 C   0  0  0  0  0  0  0  0  0  0  0  0
   -7.2191    0.6476   -0.6549 C   0  0  2  0  0  0  0  0  0  0  0  0
   -8.1042    1.0954    0.5660 C   0  0  0  0  0  0  0  0  0  0  0  0
   -8.2066    2.5337    0.8794 N   0  0  0  0  0  0  0  0  0  0  0  0
   -9.1912    3.2162    0.0493 C   0  0  0  0  0  0  0  0  0  0  0  0
   -6.8774    3.1528    0.7942 C   0  0  0  0  0  0  0  0  0  0  0  0
   -6.1020    2.8511   -0.5049 C   0  0  0  0  0  0  0  0  0  0  0  0
   -5.9393    1.4093   -0.7541 N   0  0  0  0  0  0  0  0  0  0  0  0
   -5.1236    1.1515   -1.9542 C   0  0  0  0  0  0  0  0  0  0  0  0
   -3.6267    1.3881   -1.6111 C   0  0  0  0  0  0  0  0  0  0  0  0
   -3.4289   -0.1379   -1.3957 C   0  0  0  0  0  0  0  0  0  0  0  0
   -3.4089   -0.5575    0.0848 C   0  0  0  0  0  0  0  0  0  0  0  0
   -3.2853   -2.0793    0.2003 C   0  0  0  0  0  0  0  0  0  0  0  0
   -2.1070   -2.5670   -0.5371 N   0  0  0  0  0  0  0  0  0  0  0  0
   -0.8623   -2.6752    0.0809 C   0  0  0  0  0  0  0  0  0  0  0  0
    0.1804   -3.3904   -0.5297 C   0  0  0  0  0  0  0  0  0  0  0  0
    1.4443   -3.5281    0.0628 C   0  0  0  0  0  0  0  0  0  0  0  0
    1.7192   -2.9536    1.3079 C   0  0  0  0  0  0  0  0  0  0  0  0
    3.0928   -3.1491    1.8594 C   0  0  0  0  0  0  0  0  0  0  0  0
    3.9931   -3.5631    1.1453 O   0  0  0  0  0  0  0  0  0  0  0  0
    3.2844   -2.8119    3.2007 N   0  0  0  0  0  0  0  0  0  0  0  0
    4.7232   -2.8582    4.0210 S   0  0  0  0  0  0  0  0  0  0  0  0
    5.3009   -4.1783    3.9175 O   0  0  0  0  0  0  0  0  0  0  0  0
    4.4485   -2.2705    5.3165 O   0  0  0  0  0  0  0  0  0  0  0  0
    5.7464   -1.7081    3.1352 C   0  0  0  0  0  0  0  0  0  0  0  0
    6.6076   -2.1769    2.1450 C   0  0  0  0  0  0  0  0  0  0  0  0
    7.4479   -1.2865    1.4644 C   0  0  0  0  0  0  0  0  0  0  0  0
    7.4956    0.0817    1.7799 C   0  0  0  0  0  0  0  0  0  0  0  0
    8.2736    0.9793    1.0409 N   0  0  0  0  0  0  0  0  0  0  0  0
    9.3708    0.5601    0.1682 C   0  0  0  0  0  0  0  0  0  0  0  0
    8.8795    0.3706   -1.2838 C   0  0  1  0  0  0  0  0  0  0  0  0
    8.3785    1.6806   -1.9117 C   0  0  0  0  0  0  0  0  0  0  0  0
    9.4897    2.6832   -2.2393 C   0  0  0  0  0  0  0  0  0  0  0  0
   10.7738    2.0372   -2.7941 C   0  0  2  0  0  0  0  0  0  0  0  0
   11.8239    2.0527   -1.7975 N   0  0  0  0  0  0  0  0  0  0  0  0
   11.2419    2.8253   -3.8658 O   0  0  0  0  0  0  0  0  0  0  0  0
   10.5142    0.6027   -3.2667 C   0  0  0  0  0  0  0  0  0  0  0  0
    9.9633   -0.2968   -2.1572 C   0  0  0  0  0  0  0  0  0  0  0  0
    6.5995    0.5214    2.7875 C   0  0  0  0  0  0  0  0  0  0  0  0
    6.5618    1.9326    3.1757 N   0  0  0  0  0  0  0  0  0  0  0  0
    7.6335    2.5593    3.1910 O   0  0  0  0  0  0  0  0  0  0  0  0
    5.4636    2.4131    3.4882 O   0  0  0  0  0  0  0  0  0  0  0  0
    5.7350   -0.3556    3.4705 C   0  0  0  0  0  0  0  0  0  0  0  0
    0.6929   -2.2383    1.9319 C   0  0  0  0  0  0  0  0  0  0  0  0
    0.8563   -1.6503    3.1635 O   0  0  0  0  0  0  0  0  0  0  0  0
    1.1952   -0.3133    3.2042 C   0  0  0  0  0  0  0  0  0  0  0  0
    1.4587    0.5078    2.1081 C   0  0  0  0  0  0  0  0  0  0  0  0
    1.8554    1.8024    2.1670 N   0  0  0  0  0  0  0  0  0  0  0  0
    1.9764    2.2556    3.4283 C   0  0  0  0  0  0  0  0  0  0  0  0
    2.3900    3.5151    3.7662 N   0  0  0  0  0  0  0  0  0  0  0  0
    2.3889    3.6542    5.1318 C   0  0  0  0  0  0  0  0  0  0  0  0
    1.9863    2.4537    5.6785 C   0  0  0  0  0  0  0  0  0  0  0  0
    1.7307    1.5583    4.6055 C   0  0  0  0  0  0  0  0  0  0  0  0
    1.3250    0.2205    4.4897 C   0  0  0  0  0  0  0  0  0  0  0  0
   -0.5801   -2.1330    1.3416 C   0  0  0  0  0  0  0  0  0  0  0  0
   -2.1426   -2.2170   -1.9708 C   0  0  0  0  0  0  0  0  0  0  0  0
   -2.2006   -0.6953   -2.1321 C   0  0  0  0  0  0  0  0  0  0  0  0
   -4.7788   -0.3461   -2.1399 C   0  0  0  0  0  0  0  0  0  0  0  0
   -8.5926   -3.5722   -2.4851 H   0  0  0  0  0  0  0  0  0  0  0  0
   -7.0835   -2.8971   -1.8565 H   0  0  0  0  0  0  0  0  0  0  0  0
   -8.0870   -3.9304   -0.8287 H   0  0  0  0  0  0  0  0  0  0  0  0
   -8.3787   -1.6132   -0.1480 H   0  0  0  0  0  0  0  0  0  0  0  0
  -10.8455   -1.4029   -0.3180 H   0  0  0  0  0  0  0  0  0  0  0  0
  -10.2837   -3.0143    0.1530 H   0  0  0  0  0  0  0  0  0  0  0  0
  -10.8671   -2.7335   -1.4877 H   0  0  0  0  0  0  0  0  0  0  0  0
  -10.1366   -1.8580   -3.4654 H   0  0  0  0  0  0  0  0  0  0  0  0
  -10.2173   -0.1013   -5.1641 H   0  0  0  0  0  0  0  0  0  0  0  0
   -8.9741    2.0148   -4.8225 H   0  0  0  0  0  0  0  0  0  0  0  0
   -7.6489    2.3525   -2.8185 H   0  0  0  0  0  0  0  0  0  0  0  0
   -6.8580   -0.3451   -0.3694 H   0  0  0  0  0  0  0  0  0  0  0  0
   -7.6524    0.6367    1.4580 H   0  0  0  0  0  0  0  0  0  0  0  0
   -9.1081    0.6554    0.5114 H   0  0  0  0  0  0  0  0  0  0  0  0
   -9.3251    4.2466    0.3976 H   0  0  0  0  0  0  0  0  0  0  0  0
   -8.9207    3.2575   -1.0071 H   0  0  0  0  0  0  0  0  0  0  0  0
  -10.1709    2.7329    0.1345 H   0  0  0  0  0  0  0  0  0  0  0  0
   -6.2817    2.7968    1.6457 H   0  0  0  0  0  0  0  0  0  0  0  0
   -6.9570    4.2387    0.9298 H   0  0  0  0  0  0  0  0  0  0  0  0
   -5.1193    3.3250   -0.4015 H   0  0  0  0  0  0  0  0  0  0  0  0
   -6.5863    3.3567   -1.3449 H   0  0  0  0  0  0  0  0  0  0  0  0
   -5.4458    1.6618   -2.8665 H   0  0  0  0  0  0  0  0  0  0  0  0
   -3.3811    2.0148   -0.7480 H   0  0  0  0  0  0  0  0  0  0  0  0
   -3.0672    1.7905   -2.4664 H   0  0  0  0  0  0  0  0  0  0  0  0
   -4.3136   -0.2342    0.6095 H   0  0  0  0  0  0  0  0  0  0  0  0
   -2.5650   -0.0688    0.5860 H   0  0  0  0  0  0  0  0  0  0  0  0
   -3.2751   -2.3972    1.2490 H   0  0  0  0  0  0  0  0  0  0  0  0
   -4.1761   -2.5507   -0.2343 H   0  0  0  0  0  0  0  0  0  0  0  0
    0.0143   -3.8975   -1.4778 H   0  0  0  0  0  0  0  0  0  0  0  0
    2.2062   -4.1042   -0.4612 H   0  0  0  0  0  0  0  0  0  0  0  0
    2.5202   -2.4701    3.7749 H   0  0  0  0  0  0  0  0  0  0  0  0
    6.6184   -3.2329    1.8756 H   0  0  0  0  0  0  0  0  0  0  0  0
    8.0683   -1.7019    0.6747 H   0  0  0  0  0  0  0  0  0  0  0  0
    8.5168    1.8191    1.5781 H   0  0  0  0  0  0  0  0  0  0  0  0
    9.8523   -0.3467    0.5527 H   0  0  0  0  0  0  0  0  0  0  0  0
   10.1401    1.3378    0.2057 H   0  0  0  0  0  0  0  0  0  0  0  0
    8.0224   -0.3151   -1.2563 H   0  0  0  0  0  0  0  0  0  0  0  0
    7.8526    1.4341   -2.8442 H   0  0  0  0  0  0  0  0  0  0  0  0
    7.6290    2.1626   -1.2733 H   0  0  0  0  0  0  0  0  0  0  0  0
    9.0932    3.4181   -2.9525 H   0  0  0  0  0  0  0  0  0  0  0  0
    9.7128    3.2676   -1.3363 H   0  0  0  0  0  0  0  0  0  0  0  0
   12.0114    3.0317   -1.5792 H   0  0  0  0  0  0  0  0  0  0  0  0
   12.6847    1.7034   -2.2095 H   0  0  0  0  0  0  0  0  0  0  0  0
   11.9000    2.3012   -4.3483 H   0  0  0  0  0  0  0  0  0  0  0  0
    9.8091    0.6234   -4.1091 H   0  0  0  0  0  0  0  0  0  0  0  0
   11.4272    0.1552   -3.6817 H   0  0  0  0  0  0  0  0  0  0  0  0
    9.5396   -1.1933   -2.6275 H   0  0  0  0  0  0  0  0  0  0  0  0
   10.7923   -0.6582   -1.5364 H   0  0  0  0  0  0  0  0  0  0  0  0
    5.0720    0.0133    4.2516 H   0  0  0  0  0  0  0  0  0  0  0  0
    1.3689    0.1439    1.0881 H   0  0  0  0  0  0  0  0  0  0  0  0
    2.6764    4.2098    3.0924 H   0  0  0  0  0  0  0  0  0  0  0  0
    2.6918    4.5855    5.5913 H   0  0  0  0  0  0  0  0  0  0  0  0
    1.8989    2.2416    6.7362 H   0  0  0  0  0  0  0  0  0  0  0  0
    1.1329   -0.3788    5.3736 H   0  0  0  0  0  0  0  0  0  0  0  0
   -1.3381   -1.5833    1.8918 H   0  0  0  0  0  0  0  0  0  0  0  0
   -3.0361   -2.6728   -2.4159 H   0  0  0  0  0  0  0  0  0  0  0  0
   -1.2931   -2.6101   -2.5368 H   0  0  0  0  0  0  0  0  0  0  0  0
   -2.2357   -0.4437   -3.1988 H   0  0  0  0  0  0  0  0  0  0  0  0
   -1.2874   -0.2417   -1.7263 H   0  0  0  0  0  0  0  0  0  0  0  0
   -4.6579   -0.6034   -3.2015 H   0  0  0  0  0  0  0  0  0  0  0  0
   -5.4384   -1.1055   -1.7173 H   0  0  0  0  0  0  0  0  0  0  0  0
  1  2  1  0
  2  3  1  0
  2  4  1  0
  4  5  2  0
  5  6  1  0
  6  7  2  0
  7  8  1  0
  8  9  2  0
  9 10  1  0
 10 11  1  0
 11 12  1  0
 12 13  1  0
 12 14  1  0
 14 15  1  0
 15 16  1  0
 16 17  1  0
 17 18  1  0
 18 19  1  0
 19 20  1  0
 20 21  1  0
 21 22  1  0
 22 23  1  0
 23 24  2  0
 24 25  1  0
 25 26  2  0
 26 27  1  0
 27 28  2  0
 27 29  1  0
 29 30  1  0
 30 31  2  0
 30 32  2  0
 30 33  1  0
 33 34  2  0
 34 35  1  0
 35 36  2  0
 36 37  1  0
 37 38  1  0
 38 39  1  0
 39 40  1  0
 40 41  1  0
 41 42  1  0
 42 43  1  0
 42 44  1  6
 42 45  1  0
 45 46  1  0
 36 47  1  0
 47 48  1  0
 48 49  2  0
 48 50  1  0
 47 51  2  0
 26 52  1  0
 52 53  1  0
 53 54  1  0
 54 55  2  0
 55 56  1  0
 56 57  2  0
 57 58  1  0
 58 59  1  0
 59 60  2  0
 60 61  1  0
 61 62  2  0
 52 63  2  0
 22 64  1  0
 64 65  1  0
 19 66  1  0
  9  4  1  0
 16 10  1  0
 66 17  1  0
 65 19  1  0
 63 23  1  0
 51 33  1  0
 62 54  1  0
 46 39  1  0
 61 57  1  0
  1 67  1  0
  1 68  1  0
  1 69  1  0
  2 70  1  0
  3 71  1  0
  3 72  1  0
  3 73  1  0
  5 74  1  0
  6 75  1  0
  7 76  1  0
  8 77  1  0
 10 78  1  1
 11 79  1  0
 11 80  1  0
 13 81  1  0
 13 82  1  0
 13 83  1  0
 14 84  1  0
 14 85  1  0
 15 86  1  0
 15 87  1  0
 17 88  1  0
 18 89  1  0
 18 90  1  0
 20 91  1  0
 20 92  1  0
 21 93  1  0
 21 94  1  0
 24 95  1  0
 25 96  1  0
 29 97  1  0
 34 98  1  0
 35 99  1  0
 37100  1  0
 38101  1  0
 38102  1  0
 39103  1  1
 40104  1  0
 40105  1  0
 41106  1  0
 41107  1  0
 43108  1  0
 43109  1  0
 44110  1  0
 45111  1  0
 45112  1  0
 46113  1  0
 46114  1  0
 51115  1  0
 55116  1  0
 58117  1  0
 59118  1  0
 60119  1  0
 62120  1  0
 63121  1  0
 64122  1  0
 64123  1  0
 65124  1  0
 65125  1  0
 66126  1  0
 66127  1  0
M  CHG  2  48   1  50  -1
M  END
$$$$
