
     RDKit          3D

124133  0  0  0  0  0  0  0  0999 V2000
  -10.4206   -2.3830   -2.5979 C   0  0  0  0  0  0  0  0  0  0  0  0
  -10.7735   -0.9666   -2.4578 N   0  0  0  0  0  0  0  0  0  0  0  0
  -10.8379   -0.5924   -1.0293 C   0  0  0  0  0  0  0  0  0  0  0  0
   -9.4330   -0.3732   -0.3680 C   0  0  2  0  0  0  0  0  0  0  0  0
   -9.6250    0.3269    0.9886 C   0  0  0  0  0  0  0  0  0  0  0  0
  -10.0172    1.6830    1.0291 C   0  0  0  0  0  0  0  0  0  0  0  0
  -10.1760    2.3593    2.2365 C   0  0  0  0  0  0  0  0  0  0  0  0
   -9.9489    1.6943    3.4306 C   0  0  0  0  0  0  0  0  0  0  0  0
   -9.5846    0.3485    3.4126 C   0  0  0  0  0  0  0  0  0  0  0  0
   -9.4390   -0.3766    2.2107 C   0  0  0  0  0  0  0  0  0  0  0  0
   -9.0622   -1.8471    2.2745 C   0  0  0  0  0  0  0  0  0  0  0  0
  -10.0697   -2.8999    1.8661 C   0  0  0  0  0  0  0  0  0  0  0  0
   -9.6799   -2.7691    3.3040 C   0  0  0  0  0  0  0  0  0  0  0  0
   -8.3986    0.1917   -1.2932 N   0  0  0  0  0  0  0  0  0  0  0  0
   -7.2537    0.8186   -0.6261 C   0  0  0  0  0  0  0  0  0  0  0  0
   -6.4413   -0.2287    0.1795 C   0  0  0  0  0  0  0  0  0  0  0  0
   -5.1419    0.3687   -0.4387 C   0  0  0  0  0  0  0  0  0  0  0  0
   -4.4894    1.4609    0.4211 C   0  0  0  0  0  0  0  0  0  0  0  0
   -3.2900    2.0674   -0.3106 C   0  0  0  0  0  0  0  0  0  0  0  0
   -2.3414    1.0009   -0.6927 N   0  0  0  0  0  0  0  0  0  0  0  0
   -1.0721    1.4872   -1.0451 C   0  0  0  0  0  0  0  0  0  0  0  0
   -0.5162    1.3513   -2.3242 C   0  0  0  0  0  0  0  0  0  0  0  0
    0.7587    1.8504   -2.6253 C   0  0  0  0  0  0  0  0  0  0  0  0
    1.5235    2.4956   -1.6465 C   0  0  0  0  0  0  0  0  0  0  0  0
    2.8597    3.0083   -2.0499 C   0  0  0  0  0  0  0  0  0  0  0  0
    3.4639    2.4980   -2.9803 O   0  0  0  0  0  0  0  0  0  0  0  0
    3.3632    4.0722   -1.2973 N   0  0  0  0  0  0  0  0  0  0  0  0
    4.8770    4.7326   -1.4618 S   0  0  0  0  0  0  0  0  0  0  0  0
    5.0572    5.1948   -2.8182 O   0  0  0  0  0  0  0  0  0  0  0  0
    5.0290    5.6338   -0.3382 O   0  0  0  0  0  0  0  0  0  0  0  0
    5.9407    3.3423   -1.1722 C   0  0  0  0  0  0  0  0  0  0  0  0
    6.2226    2.9530    0.1359 C   0  0  0  0  0  0  0  0  0  0  0  0
    7.0312    1.8346    0.3718 C   0  0  0  0  0  0  0  0  0  0  0  0
    7.5653    1.0677   -0.6789 C   0  0  0  0  0  0  0  0  0  0  0  0
    8.4274   -0.0138   -0.4241 N   0  0  0  0  0  0  0  0  0  0  0  0
    8.3279   -0.7372    0.8445 C   0  0  0  0  0  0  0  0  0  0  0  0
    9.1897   -2.0133    0.8476 C   0  0  1  0  0  0  0  0  0  0  0  0
    8.6046   -3.1201   -0.0519 C   0  0  0  0  0  0  0  0  0  0  0  0
    9.6562   -4.1080   -0.5735 C   0  0  0  0  0  0  0  0  0  0  0  0
   10.8119   -4.3126    0.4120 C   0  0  2  0  0  0  0  0  0  0  0  0
   11.7977   -5.3640   -0.1011 C   0  0  0  0  0  0  0  0  0  0  0  0
   10.2721   -4.7971    1.6485 O   0  0  0  0  0  0  0  0  0  0  0  0
   11.5401   -2.9855    0.6994 C   0  0  0  0  0  0  0  0  0  0  0  0
   10.6599   -1.7411    0.5160 C   0  0  0  0  0  0  0  0  0  0  0  0
    7.3123    1.5381   -1.9918 C   0  0  0  0  0  0  0  0  0  0  0  0
    7.8706    0.8431   -3.1523 N   0  0  0  0  0  0  0  0  0  0  0  0
    8.2099    1.5324   -4.1249 O   0  0  0  0  0  0  0  0  0  0  0  0
    7.9593   -0.3948   -3.0981 O   0  0  0  0  0  0  0  0  0  0  0  0
    6.5045    2.6593   -2.2466 C   0  0  0  0  0  0  0  0  0  0  0  0
    0.9982    2.6010   -0.3548 C   0  0  0  0  0  0  0  0  0  0  0  0
    1.6889    3.1971    0.6731 O   0  0  0  0  0  0  0  0  0  0  0  0
    2.5170    2.4053    1.4421 C   0  0  0  0  0  0  0  0  0  0  0  0
    3.1474    3.0489    2.5078 C   0  0  0  0  0  0  0  0  0  0  0  0
    4.0315    2.4913    3.3707 N   0  0  0  0  0  0  0  0  0  0  0  0
    4.2554    1.1911    3.1117 C   0  0  0  0  0  0  0  0  0  0  0  0
    5.0945    0.3905    3.8370 N   0  0  0  0  0  0  0  0  0  0  0  0
    5.1030   -0.8741    3.3050 C   0  0  0  0  0  0  0  0  0  0  0  0
    4.2468   -0.8829    2.2228 C   0  0  0  0  0  0  0  0  0  0  0  0
    3.7009    0.4232    2.0940 C   0  0  0  0  0  0  0  0  0  0  0  0
    2.7926    1.0521    1.2230 C   0  0  0  0  0  0  0  0  0  0  0  0
   -0.2874    2.1211   -0.0682 C   0  0  0  0  0  0  0  0  0  0  0  0
   -2.9342   -0.0413   -1.5488 C   0  0  0  0  0  0  0  0  0  0  0  0
   -4.1092   -0.6955   -0.8219 C   0  0  0  0  0  0  0  0  0  0  0  0
   -6.0479    0.8689   -1.6060 C   0  0  0  0  0  0  0  0  0  0  0  0
   -8.9665    1.0517   -2.3334 C   0  0  0  0  0  0  0  0  0  0  0  0
  -10.0458    0.1306   -3.4986 S   0  0  0  0  0  0  0  0  0  0  0  0
  -10.5468   -2.7106   -3.6365 H   0  0  0  0  0  0  0  0  0  0  0  0
   -9.3837   -2.5816   -2.3048 H   0  0  0  0  0  0  0  0  0  0  0  0
  -11.0805   -3.0158   -1.9937 H   0  0  0  0  0  0  0  0  0  0  0  0
  -11.4110   -1.3362   -0.4610 H   0  0  0  0  0  0  0  0  0  0  0  0
  -11.4357    0.3273   -0.9611 H   0  0  0  0  0  0  0  0  0  0  0  0
   -9.0500   -1.3804   -0.1748 H   0  0  0  0  0  0  0  0  0  0  0  0
  -10.2007    2.2339    0.1117 H   0  0  0  0  0  0  0  0  0  0  0  0
  -10.4720    3.4050    2.2416 H   0  0  0  0  0  0  0  0  0  0  0  0
  -10.0604    2.2151    4.3777 H   0  0  0  0  0  0  0  0  0  0  0  0
   -9.4135   -0.1527    4.3638 H   0  0  0  0  0  0  0  0  0  0  0  0
   -8.0215   -2.0604    2.0359 H   0  0  0  0  0  0  0  0  0  0  0  0
   -9.7060   -3.7601    1.3158 H   0  0  0  0  0  0  0  0  0  0  0  0
  -11.0752   -2.5958    1.5988 H   0  0  0  0  0  0  0  0  0  0  0  0
   -9.0493   -3.5400    3.7327 H   0  0  0  0  0  0  0  0  0  0  0  0
  -10.4300   -2.3877    3.9873 H   0  0  0  0  0  0  0  0  0  0  0  0
   -7.4374    1.7674   -0.1108 H   0  0  0  0  0  0  0  0  0  0  0  0
   -6.6154   -1.2768   -0.0968 H   0  0  0  0  0  0  0  0  0  0  0  0
   -6.5171   -0.1457    1.2678 H   0  0  0  0  0  0  0  0  0  0  0  0
   -5.2019    2.2557    0.6695 H   0  0  0  0  0  0  0  0  0  0  0  0
   -4.1527    1.0263    1.3713 H   0  0  0  0  0  0  0  0  0  0  0  0
   -2.8308    2.8051    0.3576 H   0  0  0  0  0  0  0  0  0  0  0  0
   -3.6210    2.6038   -1.2090 H   0  0  0  0  0  0  0  0  0  0  0  0
   -1.0701    0.8717   -3.1269 H   0  0  0  0  0  0  0  0  0  0  0  0
    1.1444    1.7354   -3.6378 H   0  0  0  0  0  0  0  0  0  0  0  0
    2.8547    4.4432   -0.5006 H   0  0  0  0  0  0  0  0  0  0  0  0
    5.8242    3.5073    0.9837 H   0  0  0  0  0  0  0  0  0  0  0  0
    7.2341    1.5802    1.4090 H   0  0  0  0  0  0  0  0  0  0  0  0
    8.4687   -0.6478   -1.2292 H   0  0  0  0  0  0  0  0  0  0  0  0
    8.6739   -0.0926    1.6613 H   0  0  0  0  0  0  0  0  0  0  0  0
    7.2852   -1.0116    1.0434 H   0  0  0  0  0  0  0  0  0  0  0  0
    9.1565   -2.3905    1.8800 H   0  0  0  0  0  0  0  0  0  0  0  0
    7.8495   -3.6679    0.5271 H   0  0  0  0  0  0  0  0  0  0  0  0
    8.0683   -2.7065   -0.9129 H   0  0  0  0  0  0  0  0  0  0  0  0
    9.1540   -5.0606   -0.7841 H   0  0  0  0  0  0  0  0  0  0  0  0
   10.0509   -3.7414   -1.5300 H   0  0  0  0  0  0  0  0  0  0  0  0
   12.5969   -5.5356    0.6290 H   0  0  0  0  0  0  0  0  0  0  0  0
   11.3000   -6.3291   -0.2493 H   0  0  0  0  0  0  0  0  0  0  0  0
   12.2520   -5.0621   -1.0505 H   0  0  0  0  0  0  0  0  0  0  0  0
    9.8472   -5.6541    1.4715 H   0  0  0  0  0  0  0  0  0  0  0  0
   11.9230   -2.9944    1.7282 H   0  0  0  0  0  0  0  0  0  0  0  0
   12.4113   -2.8695    0.0424 H   0  0  0  0  0  0  0  0  0  0  0  0
   11.0529   -0.9290    1.1394 H   0  0  0  0  0  0  0  0  0  0  0  0
   10.7482   -1.4031   -0.5246 H   0  0  0  0  0  0  0  0  0  0  0  0
    6.2974    2.9788   -3.2675 H   0  0  0  0  0  0  0  0  0  0  0  0
    2.9500    4.1021    2.7003 H   0  0  0  0  0  0  0  0  0  0  0  0
    5.6126    0.7081    4.6435 H   0  0  0  0  0  0  0  0  0  0  0  0
    5.7093   -1.6555    3.7442 H   0  0  0  0  0  0  0  0  0  0  0  0
    4.0345   -1.7387    1.5947 H   0  0  0  0  0  0  0  0  0  0  0  0
    2.3412    0.4784    0.4225 H   0  0  0  0  0  0  0  0  0  0  0  0
   -0.6680    2.2091    0.9476 H   0  0  0  0  0  0  0  0  0  0  0  0
   -2.1970   -0.8231   -1.7698 H   0  0  0  0  0  0  0  0  0  0  0  0
   -3.2752    0.3912   -2.4980 H   0  0  0  0  0  0  0  0  0  0  0  0
   -3.7476   -1.2027    0.0819 H   0  0  0  0  0  0  0  0  0  0  0  0
   -4.5536   -1.4645   -1.4647 H   0  0  0  0  0  0  0  0  0  0  0  0
   -5.8163    1.8622   -2.0025 H   0  0  0  0  0  0  0  0  0  0  0  0
   -6.0963    0.1693   -2.4513 H   0  0  0  0  0  0  0  0  0  0  0  0
   -9.5304    1.8916   -1.9187 H   0  0  0  0  0  0  0  0  0  0  0  0
   -8.1825    1.4855   -2.9619 H   0  0  0  0  0  0  0  0  0  0  0  0
  1  2  1  0
  2  3  1  0
  3  4  1  0
  4  5  1  0
  5  6  2  0
  6  7  1  0
  7  8  2  0
  8  9  1  0
  9 10  2  0
 10 11  1  0
 11 12  1  0
 12 13  1  0
  4 14  1  0
 14 15  1  0
 15 16  1  0
 16 17  1  0
 17 18  1  0
 18 19  1  0
 19 20  1  0
 20 21  1  0
 21 22  2  0
 22 23  1  0
 23 24  2  0
 24 25  1  0
 25 26  2  0
 25 27  1  0
 27 28  1  0
 28 29  2  0
 28 30  2  0
 28 31  1  0
 31 32  2  0
 32 33  1  0
 33 34  2  0
 34 35  1  0
 35 36  1  0
 36 37  1  0
 37 38  1  0
 38 39  1  0
 39 40  1  0
 40 41  1  0
 40 42  1  1
 40 43  1  0
 43 44  1  0
 34 45  1  0
 45 46  1  0
 46 47  2  0
 46 48  1  0
 45 49  2  0
 24 50  1  0
 50 51  1  0
 51 52  1  0
 52 53  2  0
 53 54  1  0
 54 55  2  0
 55 56  1  0
 56 57  1  0
 57 58  2  0
 58 59  1  0
 59 60  2  0
 50 61  2  0
 20 62  1  0
 62 63  1  0
 17 64  1  0
 14 65  1  0
 65 66  1  0
 66  2  1  0
 10  5  1  0
 13 11  1  0
 64 15  1  0
 63 17  1  0
 61 21  1  0
 49 31  1  0
 60 52  1  0
 44 37  1  0
 59 55  1  0
  1 67  1  0
  1 68  1  0
  1 69  1  0
  3 70  1  0
  3 71  1  0
  4 72  1  1
  6 73  1  0
  7 74  1  0
  8 75  1  0
  9 76  1  0
 11 77  1  0
 12 78  1  0
 12 79  1  0
 13 80  1  0
 13 81  1  0
 15 82  1  0
 16 83  1  0
 16 84  1  0
 18 85  1  0
 18 86  1  0
 19 87  1  0
 19 88  1  0
 22 89  1  0
 23 90  1  0
 27 91  1  0
 32 92  1  0
 33 93  1  0
 35 94  1  0
 36 95  1  0
 36 96  1  0
 37 97  1  1
 38 98  1  0
 38 99  1  0
 39100  1  0
 39101  1  0
 41102  1  0
 41103  1  0
 41104  1  0
 42105  1  0
 43106  1  0
 43107  1  0
 44108  1  0
 44109  1  0
 49110  1  0
 53111  1  0
 56112  1  0
 57113  1  0
 58114  1  0
 60115  1  0
 61116  1  0
 62117  1  0
 62118  1  0
 63119  1  0
 63120  1  0
 64121  1  0
 64122  1  0
 65123  1  0
 65124  1  0
M  CHG  2  46   1  48  -1
M  END
$$$$

     RDKit          3D

124133  0  0  0  0  0  0  0  0999 V2000
  -10.0772    0.1748   -3.6871 C   0  0  0  0  0  0  0  0  0  0  0  0
   -9.2295   -0.4330   -2.6619 N   0  0  0  0  0  0  0  0  0  0  0  0
   -9.7110   -0.0647   -1.3126 C   0  0  0  0  0  0  0  0  0  0  0  0
   -9.0013   -0.8312   -0.1408 C   0  0  2  0  0  0  0  0  0  0  0  0
   -9.2843   -0.3233    1.2855 C   0  0  0  0  0  0  0  0  0  0  0  0
   -9.7905    0.9748    1.5124 C   0  0  0  0  0  0  0  0  0  0  0  0
  -10.0230    1.4531    2.8021 C   0  0  0  0  0  0  0  0  0  0  0  0
   -9.7501    0.6488    3.8962 C   0  0  0  0  0  0  0  0  0  0  0  0
   -9.2561   -0.6384    3.6970 C   0  0  0  0  0  0  0  0  0  0  0  0
   -9.0299   -1.1667    2.4077 C   0  0  0  0  0  0  0  0  0  0  0  0
   -8.4838   -2.5795    2.2720 C   0  0  0  0  0  0  0  0  0  0  0  0
   -9.3691   -3.6845    1.7384 C   0  0  0  0  0  0  0  0  0  0  0  0
   -8.9616   -3.6960    3.1768 C   0  0  0  0  0  0  0  0  0  0  0  0
   -7.5552   -1.1158   -0.3939 N   0  0  0  0  0  0  0  0  0  0  0  0
   -6.7723    0.0920   -0.7097 C   0  0  0  0  0  0  0  0  0  0  0  0
   -6.4815    0.9194    0.5701 C   0  0  0  0  0  0  0  0  0  0  0  0
   -5.0148    1.0931    0.0627 C   0  0  0  0  0  0  0  0  0  0  0  0
   -3.9859    1.0087    1.1991 C   0  0  0  0  0  0  0  0  0  0  0  0
   -2.5961    1.3754    0.6834 C   0  0  0  0  0  0  0  0  0  0  0  0
   -2.5781    2.7379    0.1078 N   0  0  0  0  0  0  0  0  0  0  0  0
   -1.4651    3.0304   -0.6841 C   0  0  0  0  0  0  0  0  0  0  0  0
   -1.5548    3.5746   -1.9707 C   0  0  0  0  0  0  0  0  0  0  0  0
   -0.4127    3.8687   -2.7304 C   0  0  0  0  0  0  0  0  0  0  0  0
    0.8725    3.6223   -2.2307 C   0  0  0  0  0  0  0  0  0  0  0  0
    2.0241    3.9598   -3.1293 C   0  0  0  0  0  0  0  0  0  0  0  0
    1.8454    4.5330   -4.1915 O   0  0  0  0  0  0  0  0  0  0  0  0
    3.2842    3.5539   -2.6847 N   0  0  0  0  0  0  0  0  0  0  0  0
    4.7013    3.7298   -3.5327 S   0  0  0  0  0  0  0  0  0  0  0  0
    5.1816    5.0830   -3.3753 O   0  0  0  0  0  0  0  0  0  0  0  0
    4.5916    3.0732   -4.8146 O   0  0  0  0  0  0  0  0  0  0  0  0
    5.7450    2.6995   -2.5120 C   0  0  0  0  0  0  0  0  0  0  0  0
    5.9461    1.3645   -2.8571 C   0  0  0  0  0  0  0  0  0  0  0  0
    6.6835    0.5302   -2.0080 C   0  0  0  0  0  0  0  0  0  0  0  0
    7.2058    0.9878   -0.7850 C   0  0  0  0  0  0  0  0  0  0  0  0
    7.9798    0.1523    0.0375 N   0  0  0  0  0  0  0  0  0  0  0  0
    7.8451   -1.3009   -0.0630 C   0  0  0  0  0  0  0  0  0  0  0  0
    8.5763   -1.9902    1.1068 C   0  0  1  0  0  0  0  0  0  0  0  0
    8.3067   -3.5098    1.1049 C   0  0  0  0  0  0  0  0  0  0  0  0
    9.4356   -4.2915    0.4350 C   0  0  0  0  0  0  0  0  0  0  0  0
   10.7688   -4.1116    1.1889 C   0  0  2  0  0  0  0  0  0  0  0  0
   11.9475   -4.3839    0.2499 C   0  0  0  0  0  0  0  0  0  0  0  0
   10.8266   -5.0745    2.2479 O   0  0  0  0  0  0  0  0  0  0  0  0
   10.8866   -2.7219    1.8450 C   0  0  0  0  0  0  0  0  0  0  0  0
   10.0850   -1.6673    1.0903 C   0  0  0  0  0  0  0  0  0  0  0  0
    7.0323    2.3655   -0.5041 C   0  0  0  0  0  0  0  0  0  0  0  0
    7.5654    2.9454    0.7280 N   0  0  0  0  0  0  0  0  0  0  0  0
    7.9930    4.1068    0.6741 O   0  0  0  0  0  0  0  0  0  0  0  0
    7.5130    2.2561    1.7594 O   0  0  0  0  0  0  0  0  0  0  0  0
    6.3071    3.2230   -1.3500 C   0  0  0  0  0  0  0  0  0  0  0  0
    0.9805    3.0584   -0.9518 C   0  0  0  0  0  0  0  0  0  0  0  0
    2.2161    2.8581   -0.3747 O   0  0  0  0  0  0  0  0  0  0  0  0
    2.5474    1.5921    0.0586 C   0  0  0  0  0  0  0  0  0  0  0  0
    2.0703    0.4032   -0.4921 C   0  0  0  0  0  0  0  0  0  0  0  0
    2.4439   -0.8453   -0.1182 N   0  0  0  0  0  0  0  0  0  0  0  0
    3.3628   -0.8436    0.8648 C   0  0  0  0  0  0  0  0  0  0  0  0
    3.8974   -1.9695    1.4293 N   0  0  0  0  0  0  0  0  0  0  0  0
    4.8113   -1.6177    2.3903 C   0  0  0  0  0  0  0  0  0  0  0  0
    4.8580   -0.2397    2.4453 C   0  0  0  0  0  0  0  0  0  0  0  0
    3.9356    0.2600    1.4871 C   0  0  0  0  0  0  0  0  0  0  0  0
    3.5136    1.5305    1.0659 C   0  0  0  0  0  0  0  0  0  0  0  0
   -0.1720    2.7958   -0.1895 C   0  0  0  0  0  0  0  0  0  0  0  0
   -3.8904    3.3355   -0.1839 C   0  0  0  0  0  0  0  0  0  0  0  0
   -4.7914    2.3080   -0.8634 C   0  0  0  0  0  0  0  0  0  0  0  0
   -5.2536   -0.2460   -0.7071 C   0  0  0  0  0  0  0  0  0  0  0  0
   -7.4524   -2.1134   -1.4821 C   0  0  0  0  0  0  0  0  0  0  0  0
   -8.5541   -1.9258   -2.9331 S   0  0  0  0  0  0  0  0  0  0  0  0
   -9.6093    0.1040   -4.6759 H   0  0  0  0  0  0  0  0  0  0  0  0
  -10.2306    1.2424   -3.4925 H   0  0  0  0  0  0  0  0  0  0  0  0
  -11.0566   -0.3142   -3.7367 H   0  0  0  0  0  0  0  0  0  0  0  0
  -10.7921   -0.2407   -1.2303 H   0  0  0  0  0  0  0  0  0  0  0  0
   -9.5402    1.0123   -1.2126 H   0  0  0  0  0  0  0  0  0  0  0  0
   -9.5112   -1.8060   -0.1418 H   0  0  0  0  0  0  0  0  0  0  0  0
  -10.0013    1.6558    0.6944 H   0  0  0  0  0  0  0  0  0  0  0  0
  -10.4070    2.4592    2.9488 H   0  0  0  0  0  0  0  0  0  0  0  0
   -9.9161    1.0184    4.9042 H   0  0  0  0  0  0  0  0  0  0  0  0
   -9.0368   -1.2487    4.5709 H   0  0  0  0  0  0  0  0  0  0  0  0
   -7.4315   -2.6296    1.9955 H   0  0  0  0  0  0  0  0  0  0  0  0
   -8.9192   -4.4130    1.0742 H   0  0  0  0  0  0  0  0  0  0  0  0
  -10.4065   -3.4623    1.5146 H   0  0  0  0  0  0  0  0  0  0  0  0
   -8.2322   -4.4328    3.4935 H   0  0  0  0  0  0  0  0  0  0  0  0
   -9.7355   -3.5019    3.9102 H   0  0  0  0  0  0  0  0  0  0  0  0
   -7.0825    0.6885   -1.5738 H   0  0  0  0  0  0  0  0  0  0  0  0
   -7.0534    1.8462    0.6749 H   0  0  0  0  0  0  0  0  0  0  0  0
   -6.5396    0.3684    1.5175 H   0  0  0  0  0  0  0  0  0  0  0  0
   -3.9647    0.0046    1.6388 H   0  0  0  0  0  0  0  0  0  0  0  0
   -4.2668    1.6933    2.0101 H   0  0  0  0  0  0  0  0  0  0  0  0
   -1.8895    1.3124    1.5186 H   0  0  0  0  0  0  0  0  0  0  0  0
   -2.2942    0.6421   -0.0764 H   0  0  0  0  0  0  0  0  0  0  0  0
   -2.5198    3.7681   -2.4314 H   0  0  0  0  0  0  0  0  0  0  0  0
   -0.5446    4.2924   -3.7260 H   0  0  0  0  0  0  0  0  0  0  0  0
    3.3808    3.1385   -1.7672 H   0  0  0  0  0  0  0  0  0  0  0  0
    5.5315    0.9570   -3.7782 H   0  0  0  0  0  0  0  0  0  0  0  0
    6.8298   -0.4987   -2.3276 H   0  0  0  0  0  0  0  0  0  0  0  0
    7.9533    0.4681    1.0143 H   0  0  0  0  0  0  0  0  0  0  0  0
    8.2639   -1.6542   -1.0128 H   0  0  0  0  0  0  0  0  0  0  0  0
    6.7840   -1.5753   -0.0331 H   0  0  0  0  0  0  0  0  0  0  0  0
    8.1564   -1.5938    2.0421 H   0  0  0  0  0  0  0  0  0  0  0  0
    7.3525   -3.7385    0.6162 H   0  0  0  0  0  0  0  0  0  0  0  0
    8.2057   -3.8550    2.1422 H   0  0  0  0  0  0  0  0  0  0  0  0
    9.1598   -5.3523    0.3975 H   0  0  0  0  0  0  0  0  0  0  0  0
    9.5291   -3.9461   -0.6025 H   0  0  0  0  0  0  0  0  0  0  0  0
   11.9969   -3.6495   -0.5604 H   0  0  0  0  0  0  0  0  0  0  0  0
   12.8964   -4.3621    0.7979 H   0  0  0  0  0  0  0  0  0  0  0  0
   11.8700   -5.3833   -0.1936 H   0  0  0  0  0  0  0  0  0  0  0  0
   10.8487   -5.9618    1.8504 H   0  0  0  0  0  0  0  0  0  0  0  0
   10.5339   -2.7607    2.8846 H   0  0  0  0  0  0  0  0  0  0  0  0
   11.9377   -2.4140    1.9052 H   0  0  0  0  0  0  0  0  0  0  0  0
   10.4562   -1.6013    0.0597 H   0  0  0  0  0  0  0  0  0  0  0  0
   10.2534   -0.6839    1.5454 H   0  0  0  0  0  0  0  0  0  0  0  0
    6.1696    4.2738   -1.0981 H   0  0  0  0  0  0  0  0  0  0  0  0
    1.3456    0.4085   -1.3028 H   0  0  0  0  0  0  0  0  0  0  0  0
    3.6361   -2.9075    1.1624 H   0  0  0  0  0  0  0  0  0  0  0  0
    5.3444   -2.3737    2.9518 H   0  0  0  0  0  0  0  0  0  0  0  0
    5.4857    0.3444    3.1074 H   0  0  0  0  0  0  0  0  0  0  0  0
    3.9216    2.4297    1.5155 H   0  0  0  0  0  0  0  0  0  0  0  0
   -0.0531    2.4344    0.8299 H   0  0  0  0  0  0  0  0  0  0  0  0
   -4.3424    3.6578    0.7629 H   0  0  0  0  0  0  0  0  0  0  0  0
   -3.8155    4.2485   -0.7841 H   0  0  0  0  0  0  0  0  0  0  0  0
   -4.3209    1.9834   -1.7998 H   0  0  0  0  0  0  0  0  0  0  0  0
   -5.7434    2.7789   -1.1339 H   0  0  0  0  0  0  0  0  0  0  0  0
   -4.9721   -1.1401   -0.1344 H   0  0  0  0  0  0  0  0  0  0  0  0
   -4.7890   -0.3210   -1.6954 H   0  0  0  0  0  0  0  0  0  0  0  0
   -6.4270   -2.2088   -1.8533 H   0  0  0  0  0  0  0  0  0  0  0  0
   -7.6876   -3.0943   -1.0524 H   0  0  0  0  0  0  0  0  0  0  0  0
  1  2  1  0
  2  3  1  0
  3  4  1  0
  4  5  1  0
  5  6  2  0
  6  7  1  0
  7  8  2  0
  8  9  1  0
  9 10  2  0
 10 11  1  0
 11 12  1  0
 12 13  1  0
  4 14  1  0
 14 15  1  0
 15 16  1  0
 16 17  1  0
 17 18  1  0
 18 19  1  0
 19 20  1  0
 20 21  1  0
 21 22  2  0
 22 23  1  0
 23 24  2  0
 24 25  1  0
 25 26  2  0
 25 27  1  0
 27 28  1  0
 28 29  2  0
 28 30  2  0
 28 31  1  0
 31 32  2  0
 32 33  1  0
 33 34  2  0
 34 35  1  0
 35 36  1  0
 36 37  1  0
 37 38  1  0
 38 39  1  0
 39 40  1  0
 40 41  1  0
 40 42  1  1
 40 43  1  0
 43 44  1  0
 34 45  1  0
 45 46  1  0
 46 47  2  0
 46 48  1  0
 45 49  2  0
 24 50  1  0
 50 51  1  0
 51 52  1  0
 52 53  2  0
 53 54  1  0
 54 55  2  0
 55 56  1  0
 56 57  1  0
 57 58  2  0
 58 59  1  0
 59 60  2  0
 50 61  2  0
 20 62  1  0
 62 63  1  0
 17 64  1  0
 14 65  1  0
 65 66  1  0
 66  2  1  0
 10  5  1  0
 13 11  1  0
 64 15  1  0
 63 17  1  0
 61 21  1  0
 49 31  1  0
 60 52  1  0
 44 37  1  0
 59 55  1  0
  1 67  1  0
  1 68  1  0
  1 69  1  0
  3 70  1  0
  3 71  1  0
  4 72  1  1
  6 73  1  0
  7 74  1  0
  8 75  1  0
  9 76  1  0
 11 77  1  0
 12 78  1  0
 12 79  1  0
 13 80  1  0
 13 81  1  0
 15 82  1  0
 16 83  1  0
 16 84  1  0
 18 85  1  0
 18 86  1  0
 19 87  1  0
 19 88  1  0
 22 89  1  0
 23 90  1  0
 27 91  1  0
 32 92  1  0
 33 93  1  0
 35 94  1  0
 36 95  1  0
 36 96  1  0
 37 97  1  1
 38 98  1  0
 38 99  1  0
 39100  1  0
 39101  1  0
 41102  1  0
 41103  1  0
 41104  1  0
 42105  1  0
 43106  1  0
 43107  1  0
 44108  1  0
 44109  1  0
 49110  1  0
 53111  1  0
 56112  1  0
 57113  1  0
 58114  1  0
 60115  1  0
 61116  1  0
 62117  1  0
 62118  1  0
 63119  1  0
 63120  1  0
 64121  1  0
 64122  1  0
 65123  1  0
 65124  1  0
M  CHG  2  46   1  48  -1
M  END
$$$$

     RDKit          3D

124133  0  0  0  0  0  0  0  0999 V2000
  -11.9554    2.1886   -2.8109 C   0  0  0  0  0  0  0  0  0  0  0  0
  -10.6721    1.9886   -2.1310 N   0  0  0  0  0  0  0  0  0  0  0  0
  -10.6768    0.6778   -1.4449 C   0  0  0  0  0  0  0  0  0  0  0  0
   -9.4889    0.4687   -0.4445 C   0  0  2  0  0  0  0  0  0  0  0  0
   -9.8302    1.0611    0.9381 C   0  0  0  0  0  0  0  0  0  0  0  0
   -9.9224    2.4583    1.1097 C   0  0  0  0  0  0  0  0  0  0  0  0
  -10.1792    3.0296    2.3550 C   0  0  0  0  0  0  0  0  0  0  0  0
  -10.3651    2.2153    3.4592 C   0  0  0  0  0  0  0  0  0  0  0  0
  -10.3322    0.8312    3.3039 C   0  0  0  0  0  0  0  0  0  0  0  0
  -10.1049    0.2174    2.0521 C   0  0  0  0  0  0  0  0  0  0  0  0
  -10.1688   -1.2991    1.9658 C   0  0  0  0  0  0  0  0  0  0  0  0
  -11.2596   -1.9658    1.1552 C   0  0  0  0  0  0  0  0  0  0  0  0
  -11.2861   -2.0629    2.6468 C   0  0  0  0  0  0  0  0  0  0  0  0
   -8.1402    0.7804   -1.0212 N   0  0  0  0  0  0  0  0  0  0  0  0
   -7.0543    0.6105   -0.0421 C   0  0  0  0  0  0  0  0  0  0  0  0
   -6.8442   -0.8872    0.2989 C   0  0  0  0  0  0  0  0  0  0  0  0
   -5.3055   -0.6457    0.1788 C   0  0  0  0  0  0  0  0  0  0  0  0
   -4.6301   -0.1911    1.4926 C   0  0  0  0  0  0  0  0  0  0  0  0
   -3.2557   -0.8371    1.6649 C   0  0  0  0  0  0  0  0  0  0  0  0
   -2.4886   -0.7433    0.4217 N   0  0  0  0  0  0  0  0  0  0  0  0
   -1.4854    0.2010    0.2359 C   0  0  0  0  0  0  0  0  0  0  0  0
   -1.3284    1.3175    1.0721 C   0  0  0  0  0  0  0  0  0  0  0  0
   -0.3123    2.2622    0.8700 C   0  0  0  0  0  0  0  0  0  0  0  0
    0.6050    2.0998   -0.1695 C   0  0  0  0  0  0  0  0  0  0  0  0
    1.6613    3.1298   -0.3183 C   0  0  0  0  0  0  0  0  0  0  0  0
    1.3973    4.3142   -0.1977 O   0  0  0  0  0  0  0  0  0  0  0  0
    2.9484    2.6250   -0.5371 N   0  0  0  0  0  0  0  0  0  0  0  0
    4.2883    3.5819   -0.7713 S   0  0  0  0  0  0  0  0  0  0  0  0
    4.5572    4.3376    0.4306 O   0  0  0  0  0  0  0  0  0  0  0  0
    4.2063    4.1874   -2.0806 O   0  0  0  0  0  0  0  0  0  0  0  0
    5.5468    2.3190   -0.8634 C   0  0  0  0  0  0  0  0  0  0  0  0
    6.0774    1.8014    0.3171 C   0  0  0  0  0  0  0  0  0  0  0  0
    7.0486    0.7942    0.2622 C   0  0  0  0  0  0  0  0  0  0  0  0
    7.5035    0.2610   -0.9572 C   0  0  0  0  0  0  0  0  0  0  0  0
    8.5326   -0.6882   -0.9964 N   0  0  0  0  0  0  0  0  0  0  0  0
    8.8442   -1.5558    0.1368 C   0  0  0  0  0  0  0  0  0  0  0  0
   10.0087   -0.9868    0.9673 C   0  0  1  0  0  0  0  0  0  0  0  0
   10.1986   -1.8233    2.2426 C   0  0  0  0  0  0  0  0  0  0  0  0
   11.3774   -1.3274    3.0773 C   0  0  0  0  0  0  0  0  0  0  0  0
   12.6893   -1.2494    2.2841 C   0  0  2  0  0  0  0  0  0  0  0  0
   13.2586   -2.6426    1.9956 C   0  0  0  0  0  0  0  0  0  0  0  0
   13.6400   -0.5650    3.1059 O   0  0  0  0  0  0  0  0  0  0  0  0
   12.4866   -0.4367    0.9970 C   0  0  0  0  0  0  0  0  0  0  0  0
   11.3134   -0.9322    0.1529 C   0  0  0  0  0  0  0  0  0  0  0  0
    6.9724    0.8474   -2.1351 C   0  0  0  0  0  0  0  0  0  0  0  0
    7.4023    0.3815   -3.4576 N   0  0  0  0  0  0  0  0  0  0  0  0
    7.6955   -0.8215   -3.5829 O   0  0  0  0  0  0  0  0  0  0  0  0
    7.4458    1.2160   -4.3727 O   0  0  0  0  0  0  0  0  0  0  0  0
    6.0002    1.8645   -2.0991 C   0  0  0  0  0  0  0  0  0  0  0  0
    0.4837    0.9899   -1.0079 C   0  0  0  0  0  0  0  0  0  0  0  0
    1.2785    0.8574   -2.1201 O   0  0  0  0  0  0  0  0  0  0  0  0
    2.2711   -0.0965   -2.1263 C   0  0  0  0  0  0  0  0  0  0  0  0
    3.0880   -0.0929   -3.2565 C   0  0  0  0  0  0  0  0  0  0  0  0
    4.1818   -0.8663   -3.4498 N   0  0  0  0  0  0  0  0  0  0  0  0
    4.4122   -1.7067   -2.4264 C   0  0  0  0  0  0  0  0  0  0  0  0
    5.4500   -2.5968   -2.3762 N   0  0  0  0  0  0  0  0  0  0  0  0
    5.4092   -3.2857   -1.1902 C   0  0  0  0  0  0  0  0  0  0  0  0
    4.3201   -2.8324   -0.4742 C   0  0  0  0  0  0  0  0  0  0  0  0
    3.6817   -1.8270   -1.2502 C   0  0  0  0  0  0  0  0  0  0  0  0
    2.5640   -0.9880   -1.0891 C   0  0  0  0  0  0  0  0  0  0  0  0
   -0.5620    0.0725   -0.8168 C   0  0  0  0  0  0  0  0  0  0  0  0
   -3.1014   -1.3577   -0.7704 C   0  0  0  0  0  0  0  0  0  0  0  0
   -4.5476   -1.7883   -0.5051 C   0  0  0  0  0  0  0  0  0  0  0  0
   -5.6875    0.5283   -0.7797 C   0  0  0  0  0  0  0  0  0  0  0  0
   -8.0464    2.1062   -1.6449 C   0  0  0  0  0  0  0  0  0  0  0  0
   -9.2761    2.3928   -2.9589 S   0  0  0  0  0  0  0  0  0  0  0  0
  -12.7925    2.0840   -2.1115 H   0  0  0  0  0  0  0  0  0  0  0  0
  -12.0236    3.2023   -3.2229 H   0  0  0  0  0  0  0  0  0  0  0  0
  -12.0945    1.4756   -3.6317 H   0  0  0  0  0  0  0  0  0  0  0  0
  -11.6206    0.5410   -0.9007 H   0  0  0  0  0  0  0  0  0  0  0  0
  -10.6332   -0.1170   -2.2035 H   0  0  0  0  0  0  0  0  0  0  0  0
   -9.4580   -0.6186   -0.3213 H   0  0  0  0  0  0  0  0  0  0  0  0
   -9.8133    3.1310    0.2646 H   0  0  0  0  0  0  0  0  0  0  0  0
  -10.2348    4.1103    2.4559 H   0  0  0  0  0  0  0  0  0  0  0  0
  -10.5576    2.6508    4.4357 H   0  0  0  0  0  0  0  0  0  0  0  0
  -10.5061    0.2087    4.1801 H   0  0  0  0  0  0  0  0  0  0  0  0
   -9.2050   -1.8012    1.9808 H   0  0  0  0  0  0  0  0  0  0  0  0
  -10.9979   -2.8537    0.5912 H   0  0  0  0  0  0  0  0  0  0  0  0
  -12.0213   -1.3529    0.6871 H   0  0  0  0  0  0  0  0  0  0  0  0
  -12.0683   -1.5197    3.1651 H   0  0  0  0  0  0  0  0  0  0  0  0
  -11.0419   -3.0174    3.0994 H   0  0  0  0  0  0  0  0  0  0  0  0
   -7.0530    1.2883    0.8195 H   0  0  0  0  0  0  0  0  0  0  0  0
   -7.2370   -1.5997   -0.4383 H   0  0  0  0  0  0  0  0  0  0  0  0
   -7.1859   -1.1977    1.2887 H   0  0  0  0  0  0  0  0  0  0  0  0
   -5.2470   -0.4585    2.3587 H   0  0  0  0  0  0  0  0  0  0  0  0
   -4.5242    0.9002    1.5106 H   0  0  0  0  0  0  0  0  0  0  0  0
   -2.7313   -0.4156    2.5294 H   0  0  0  0  0  0  0  0  0  0  0  0
   -3.3795   -1.8995    1.9131 H   0  0  0  0  0  0  0  0  0  0  0  0
   -2.0225    1.5066    1.8865 H   0  0  0  0  0  0  0  0  0  0  0  0
   -0.2487    3.1273    1.5288 H   0  0  0  0  0  0  0  0  0  0  0  0
    3.1192    1.6286   -0.5010 H   0  0  0  0  0  0  0  0  0  0  0  0
    5.7564    2.1827    1.2855 H   0  0  0  0  0  0  0  0  0  0  0  0
    7.4518    0.4437    1.2090 H   0  0  0  0  0  0  0  0  0  0  0  0
    8.5642   -1.1948   -1.8870 H   0  0  0  0  0  0  0  0  0  0  0  0
    7.9578   -1.7373    0.7567 H   0  0  0  0  0  0  0  0  0  0  0  0
    9.1329   -2.5382   -0.2584 H   0  0  0  0  0  0  0  0  0  0  0  0
    9.7651    0.0395    1.2717 H   0  0  0  0  0  0  0  0  0  0  0  0
    9.2879   -1.7774    2.8524 H   0  0  0  0  0  0  0  0  0  0  0  0
   10.3456   -2.8785    1.9827 H   0  0  0  0  0  0  0  0  0  0  0  0
   11.5051   -1.9690    3.9583 H   0  0  0  0  0  0  0  0  0  0  0  0
   11.1381   -0.3329    3.4785 H   0  0  0  0  0  0  0  0  0  0  0  0
   12.5902   -3.2554    1.3847 H   0  0  0  0  0  0  0  0  0  0  0  0
   14.2211   -2.5673    1.4763 H   0  0  0  0  0  0  0  0  0  0  0  0
   13.4565   -3.1794    2.9306 H   0  0  0  0  0  0  0  0  0  0  0  0
   14.4599   -0.4594    2.5930 H   0  0  0  0  0  0  0  0  0  0  0  0
   13.4047   -0.4437    0.3960 H   0  0  0  0  0  0  0  0  0  0  0  0
   12.3213    0.6176    1.2580 H   0  0  0  0  0  0  0  0  0  0  0  0
   11.5434   -1.9231   -0.2567 H   0  0  0  0  0  0  0  0  0  0  0  0
   11.1934   -0.2608   -0.7056 H   0  0  0  0  0  0  0  0  0  0  0  0
    5.5994    2.2829   -3.0212 H   0  0  0  0  0  0  0  0  0  0  0  0
    2.8802    0.5952   -4.0750 H   0  0  0  0  0  0  0  0  0  0  0  0
    6.1447   -2.6859   -3.1066 H   0  0  0  0  0  0  0  0  0  0  0  0
    6.1540   -4.0368   -0.9635 H   0  0  0  0  0  0  0  0  0  0  0  0
    4.0185   -3.1873    0.5030 H   0  0  0  0  0  0  0  0  0  0  0  0
    1.9765   -1.0510   -0.1807 H   0  0  0  0  0  0  0  0  0  0  0  0
   -0.6394   -0.7649   -1.5065 H   0  0  0  0  0  0  0  0  0  0  0  0
   -3.1117   -0.6417   -1.6027 H   0  0  0  0  0  0  0  0  0  0  0  0
   -2.5144   -2.2289   -1.0829 H   0  0  0  0  0  0  0  0  0  0  0  0
   -5.0207   -2.0710   -1.4534 H   0  0  0  0  0  0  0  0  0  0  0  0
   -4.5686   -2.6851    0.1266 H   0  0  0  0  0  0  0  0  0  0  0  0
   -5.0637    1.4255   -0.7151 H   0  0  0  0  0  0  0  0  0  0  0  0
   -5.7388    0.2294   -1.8357 H   0  0  0  0  0  0  0  0  0  0  0  0
   -7.0819    2.2129   -2.1519 H   0  0  0  0  0  0  0  0  0  0  0  0
   -8.0898    2.9208   -0.9174 H   0  0  0  0  0  0  0  0  0  0  0  0
  1  2  1  0
  2  3  1  0
  3  4  1  0
  4  5  1  0
  5  6  2  0
  6  7  1  0
  7  8  2  0
  8  9  1  0
  9 10  2  0
 10 11  1  0
 11 12  1  0
 12 13  1  0
  4 14  1  0
 14 15  1  0
 15 16  1  0
 16 17  1  0
 17 18  1  0
 18 19  1  0
 19 20  1  0
 20 21  1  0
 21 22  2  0
 22 23  1  0
 23 24  2  0
 24 25  1  0
 25 26  2  0
 25 27  1  0
 27 28  1  0
 28 29  2  0
 28 30  2  0
 28 31  1  0
 31 32  2  0
 32 33  1  0
 33 34  2  0
 34 35  1  0
 35 36  1  0
 36 37  1  0
 37 38  1  0
 38 39  1  0
 39 40  1  0
 40 41  1  0
 40 42  1  1
 40 43  1  0
 43 44  1  0
 34 45  1  0
 45 46  1  0
 46 47  2  0
 46 48  1  0
 45 49  2  0
 24 50  1  0
 50 51  1  0
 51 52  1  0
 52 53  2  0
 53 54  1  0
 54 55  2  0
 55 56  1  0
 56 57  1  0
 57 58  2  0
 58 59  1  0
 59 60  2  0
 50 61  2  0
 20 62  1  0
 62 63  1  0
 17 64  1  0
 14 65  1  0
 65 66  1  0
 66  2  1  0
 10  5  1  0
 13 11  1  0
 64 15  1  0
 63 17  1  0
 61 21  1  0
 49 31  1  0
 60 52  1  0
 44 37  1  0
 59 55  1  0
  1 67  1  0
  1 68  1  0
  1 69  1  0
  3 70  1  0
  3 71  1  0
  4 72  1  1
  6 73  1  0
  7 74  1  0
  8 75  1  0
  9 76  1  0
 11 77  1  0
 12 78  1  0
 12 79  1  0
 13 80  1  0
 13 81  1  0
 15 82  1  0
 16 83  1  0
 16 84  1  0
 18 85  1  0
 18 86  1  0
 19 87  1  0
 19 88  1  0
 22 89  1  0
 23 90  1  0
 27 91  1  0
 32 92  1  0
 33 93  1  0
 35 94  1  0
 36 95  1  0
 36 96  1  0
 37 97  1  1
 38 98  1  0
 38 99  1  0
 39100  1  0
 39101  1  0
 41102  1  0
 41103  1  0
 41104  1  0
 42105  1  0
 43106  1  0
 43107  1  0
 44108  1  0
 44109  1  0
 49110  1  0
 53111  1  0
 56112  1  0
 57113  1  0
 58114  1  0
 60115  1  0
 61116  1  0
 62117  1  0
 62118  1  0
 63119  1  0
 63120  1  0
 64121  1  0
 64122  1  0
 65123  1  0
 65124  1  0
M  CHG  2  46   1  48  -1
M  END
$$$$
