
     RDKit          3D

128137  0  0  0  0  0  0  0  0999 V2000
   12.6337    0.3817    0.3233 C   0  0  0  0  0  0  0  0  0  0  0  0
   11.7231   -0.4817    1.1910 C   0  0  0  0  0  0  0  0  0  0  0  0
   10.6044    0.2829    1.9340 C   0  0  2  0  0  0  0  0  0  0  0  0
   11.2358    1.3319    2.6897 O   0  0  0  0  0  0  0  0  0  0  0  0
    9.9293   -0.6776    2.9410 C   0  0  0  0  0  0  0  0  0  0  0  0
    8.5017   -0.2403    3.2588 C   0  0  0  0  0  0  0  0  0  0  0  0
    7.5892   -0.3042    2.0108 C   0  0  2  0  0  0  0  0  0  0  0  0
    6.8734   -1.6728    1.9292 C   0  0  0  0  0  0  0  0  0  0  0  0
    5.5865   -1.6823    1.2547 N   0  0  0  0  0  0  0  0  0  0  0  0
    5.5992   -1.4474   -0.1425 C   0  0  0  0  0  0  0  0  0  0  0  0
    6.0602   -2.4445   -1.0183 C   0  0  0  0  0  0  0  0  0  0  0  0
    5.9615   -2.2708   -2.3952 C   0  0  0  0  0  0  0  0  0  0  0  0
    5.4452   -1.0708   -2.8778 C   0  0  0  0  0  0  0  0  0  0  0  0
    4.9220   -0.9352   -4.5702 S   0  0  0  0  0  0  0  0  0  0  0  0
    5.5215    0.2521   -5.1415 O   0  0  0  0  0  0  0  0  0  0  0  0
    5.0792   -2.2339   -5.1981 O   0  0  0  0  0  0  0  0  0  0  0  0
    3.2987   -0.6780   -4.3197 N   0  0  0  0  0  0  0  0  0  0  0  0
    2.3117   -0.4997   -5.2822 C   0  0  0  0  0  0  0  0  0  0  0  0
    2.5146   -0.5447   -6.4875 O   0  0  0  0  0  0  0  0  0  0  0  0
    0.9356   -0.2264   -4.7512 C   0  0  0  0  0  0  0  0  0  0  0  0
   -0.0232    0.2570   -5.6577 C   0  0  0  0  0  0  0  0  0  0  0  0
   -1.3101    0.6023   -5.2251 C   0  0  0  0  0  0  0  0  0  0  0  0
   -1.6701    0.4853   -3.8786 C   0  0  0  0  0  0  0  0  0  0  0  0
   -2.9658    0.9011   -3.4829 N   0  0  0  0  0  0  0  0  0  0  0  0
   -3.6757   -0.1557   -2.7326 C   0  0  0  0  0  0  0  0  0  0  0  0
   -5.0985    0.3098   -2.4235 C   0  0  0  0  0  0  0  0  0  0  0  0
   -5.0437    1.6109   -1.6133 C   0  0  0  0  0  0  0  0  0  0  0  0
   -4.2781    2.6851   -2.4048 C   0  0  0  0  0  0  0  0  0  0  0  0
   -2.8731    2.1803   -2.7456 C   0  0  0  0  0  0  0  0  0  0  0  0
   -4.6229    1.4474   -0.1090 C   0  0  0  0  0  0  0  0  0  0  0  0
   -5.7343    2.4535    0.2397 C   0  0  0  0  0  0  0  0  0  0  0  0
   -6.5037    2.2122    1.4833 N   0  0  0  0  0  0  0  0  0  0  0  0
   -5.8059    2.9859    2.5431 C   0  0  0  0  0  0  0  0  0  0  0  0
   -6.3919    2.8449    3.9606 C   0  0  0  0  0  0  0  0  0  0  0  0
   -6.4915    1.4607    4.4445 N   0  0  0  0  0  0  0  0  0  0  0  0
   -5.1777    0.8800    4.7217 C   0  0  0  0  0  0  0  0  0  0  0  0
   -7.2287    0.6799    3.4313 C   0  0  0  0  0  0  0  0  0  0  0  0
   -6.7440    0.8124    1.9360 C   0  0  1  0  0  0  0  0  0  0  0  0
   -7.7116   -0.0097    1.0681 C   0  0  0  0  0  0  0  0  0  0  0  0
   -7.1959   -1.2158    0.5311 C   0  0  0  0  0  0  0  0  0  0  0  0
   -7.9764   -2.0687   -0.2440 C   0  0  0  0  0  0  0  0  0  0  0  0
   -9.3005   -1.7478   -0.4864 C   0  0  0  0  0  0  0  0  0  0  0  0
   -9.8353   -0.5762    0.0506 C   0  0  0  0  0  0  0  0  0  0  0  0
   -9.0733    0.3297    0.8270 C   0  0  0  0  0  0  0  0  0  0  0  0
   -9.7804    1.5480    1.4043 C   0  0  0  0  0  0  0  0  0  0  0  0
   -9.4773    2.9484    0.9301 C   0  0  0  0  0  0  0  0  0  0  0  0
  -10.7852    2.3235    0.5707 C   0  0  0  0  0  0  0  0  0  0  0  0
   -6.4402    2.0735   -1.0719 C   0  0  0  0  0  0  0  0  0  0  0  0
   -0.7166    0.0009   -2.9755 C   0  0  0  0  0  0  0  0  0  0  0  0
    0.5590   -0.3883   -3.4090 C   0  0  0  0  0  0  0  0  0  0  0  0
    1.4713   -0.8478   -2.4882 O   0  0  0  0  0  0  0  0  0  0  0  0
    1.1173   -1.8839   -1.6568 C   0  0  0  0  0  0  0  0  0  0  0  0
    0.2679   -2.9354   -2.0061 C   0  0  0  0  0  0  0  0  0  0  0  0
   -0.0876   -3.9874   -1.2157 N   0  0  0  0  0  0  0  0  0  0  0  0
    0.5297   -3.9393   -0.0165 C   0  0  0  0  0  0  0  0  0  0  0  0
    0.3869   -4.8737    0.9734 N   0  0  0  0  0  0  0  0  0  0  0  0
    1.1587   -4.5395    2.0567 C   0  0  0  0  0  0  0  0  0  0  0  0
    1.8152   -3.3643    1.7528 C   0  0  0  0  0  0  0  0  0  0  0  0
    1.4152   -2.9732    0.4469 C   0  0  0  0  0  0  0  0  0  0  0  0
    1.7197   -1.9011   -0.4026 C   0  0  0  0  0  0  0  0  0  0  0  0
    5.0863   -0.0299   -2.0089 C   0  0  0  0  0  0  0  0  0  0  0  0
    5.0941   -0.2026   -0.6201 C   0  0  0  0  0  0  0  0  0  0  0  0
    4.6305    0.8446    0.1212 N   0  0  0  0  0  2  0  0  0  0  0  0
    4.1013    0.5167    1.4102 O   0  0  0  0  0  0  0  0  0  0  0  0
    8.3852    0.0059    0.7218 C   0  0  0  0  0  0  0  0  0  0  0  0
    9.5718    0.9285    0.9851 C   0  0  0  0  0  0  0  0  0  0  0  0
   13.4378   -0.2324   -0.0958 H   0  0  0  0  0  0  0  0  0  0  0  0
   12.0947    0.8280   -0.5159 H   0  0  0  0  0  0  0  0  0  0  0  0
   13.0997    1.1847    0.9031 H   0  0  0  0  0  0  0  0  0  0  0  0
   11.2885   -1.2754    0.5719 H   0  0  0  0  0  0  0  0  0  0  0  0
   12.3662   -0.9729    1.9334 H   0  0  0  0  0  0  0  0  0  0  0  0
   10.5150    1.8367    3.1094 H   0  0  0  0  0  0  0  0  0  0  0  0
   10.5073   -0.7131    3.8728 H   0  0  0  0  0  0  0  0  0  0  0  0
    9.8962   -1.6999    2.5430 H   0  0  0  0  0  0  0  0  0  0  0  0
    8.5198    0.7916    3.6350 H   0  0  0  0  0  0  0  0  0  0  0  0
    8.0979   -0.8458    4.0788 H   0  0  0  0  0  0  0  0  0  0  0  0
    6.8383    0.4811    2.1524 H   0  0  0  0  0  0  0  0  0  0  0  0
    6.6578   -2.0150    2.9489 H   0  0  0  0  0  0  0  0  0  0  0  0
    7.5385   -2.4373    1.5073 H   0  0  0  0  0  0  0  0  0  0  0  0
    5.0045   -0.7925    1.5249 H   0  0  0  0  0  0  0  0  0  0  0  0
    6.4106   -3.3825   -0.6042 H   0  0  0  0  0  0  0  0  0  0  0  0
    6.2183   -3.0843   -3.0632 H   0  0  0  0  0  0  0  0  0  0  0  0
    3.0627   -0.6016   -3.3258 H   0  0  0  0  0  0  0  0  0  0  0  0
    0.2349    0.3894   -6.7074 H   0  0  0  0  0  0  0  0  0  0  0  0
   -2.0331    0.9873   -5.9407 H   0  0  0  0  0  0  0  0  0  0  0  0
   -3.7288   -1.0703   -3.3365 H   0  0  0  0  0  0  0  0  0  0  0  0
   -3.1645   -0.4006   -1.7934 H   0  0  0  0  0  0  0  0  0  0  0  0
   -5.6496    0.4755   -3.3580 H   0  0  0  0  0  0  0  0  0  0  0  0
   -5.6260   -0.4776   -1.8762 H   0  0  0  0  0  0  0  0  0  0  0  0
   -4.1985    3.6217   -1.8418 H   0  0  0  0  0  0  0  0  0  0  0  0
   -4.8205    2.9148   -3.3310 H   0  0  0  0  0  0  0  0  0  0  0  0
   -2.2881    2.0641   -1.8249 H   0  0  0  0  0  0  0  0  0  0  0  0
   -2.3746    2.9361   -3.3655 H   0  0  0  0  0  0  0  0  0  0  0  0
   -4.7189    0.4156    0.2347 H   0  0  0  0  0  0  0  0  0  0  0  0
   -3.6136    1.7829    0.1493 H   0  0  0  0  0  0  0  0  0  0  0  0
   -5.3786    3.4925    0.1666 H   0  0  0  0  0  0  0  0  0  0  0  0
   -4.7430    2.7113    2.5708 H   0  0  0  0  0  0  0  0  0  0  0  0
   -5.8476    4.0528    2.2862 H   0  0  0  0  0  0  0  0  0  0  0  0
   -5.7994    3.4453    4.6624 H   0  0  0  0  0  0  0  0  0  0  0  0
   -7.3964    3.2890    3.9720 H   0  0  0  0  0  0  0  0  0  0  0  0
   -4.5337    0.8084    3.8404 H   0  0  0  0  0  0  0  0  0  0  0  0
   -4.6527    1.4727    5.4792 H   0  0  0  0  0  0  0  0  0  0  0  0
   -5.2910   -0.1268    5.1383 H   0  0  0  0  0  0  0  0  0  0  0  0
   -7.2313   -0.3804    3.7207 H   0  0  0  0  0  0  0  0  0  0  0  0
   -8.2728    0.9912    3.5193 H   0  0  0  0  0  0  0  0  0  0  0  0
   -5.7745    0.3027    1.9455 H   0  0  0  0  0  0  0  0  0  0  0  0
   -6.1602   -1.4986    0.7159 H   0  0  0  0  0  0  0  0  0  0  0  0
   -7.5475   -2.9801   -0.6512 H   0  0  0  0  0  0  0  0  0  0  0  0
   -9.9230   -2.4064   -1.0852 H   0  0  0  0  0  0  0  0  0  0  0  0
  -10.8860   -0.3624   -0.1357 H   0  0  0  0  0  0  0  0  0  0  0  0
  -10.0685    1.4446    2.4493 H   0  0  0  0  0  0  0  0  0  0  0  0
   -9.4607    3.7324    1.6787 H   0  0  0  0  0  0  0  0  0  0  0  0
   -8.7632    3.0948    0.1295 H   0  0  0  0  0  0  0  0  0  0  0  0
  -11.6760    2.6882    1.0681 H   0  0  0  0  0  0  0  0  0  0  0  0
  -10.9327    2.0669   -0.4726 H   0  0  0  0  0  0  0  0  0  0  0  0
   -7.1785    1.2737   -1.0497 H   0  0  0  0  0  0  0  0  0  0  0  0
   -6.8928    2.9146   -1.6081 H   0  0  0  0  0  0  0  0  0  0  0  0
   -0.9418   -0.0521   -1.9124 H   0  0  0  0  0  0  0  0  0  0  0  0
   -0.1757   -2.9761   -2.9970 H   0  0  0  0  0  0  0  0  0  0  0  0
   -0.1972   -5.6888    0.8858 H   0  0  0  0  0  0  0  0  0  0  0  0
    1.1901   -5.1603    2.9399 H   0  0  0  0  0  0  0  0  0  0  0  0
    2.5231   -2.8213    2.3728 H   0  0  0  0  0  0  0  0  0  0  0  0
    2.4157   -1.1229   -0.0826 H   0  0  0  0  0  0  0  0  0  0  0  0
    4.6989    0.9096   -2.3998 H   0  0  0  0  0  0  0  0  0  0  0  0
    7.7321    0.4890   -0.0107 H   0  0  0  0  0  0  0  0  0  0  0  0
    8.7487   -0.9182    0.2556 H   0  0  0  0  0  0  0  0  0  0  0  0
   10.0291    1.2094    0.0314 H   0  0  0  0  0  0  0  0  0  0  0  0
    9.1975    1.8707    1.4076 H   0  0  0  0  0  0  0  0  0  0  0  0
  1  2  1  0
  2  3  1  0
  3  4  1  1
  3  5  1  0
  5  6  1  0
  6  7  1  0
  7  8  1  0
  8  9  1  0
  9 10  1  0
 10 11  2  0
 11 12  1  0
 12 13  2  0
 13 14  1  0
 14 15  2  0
 14 16  2  0
 14 17  1  0
 17 18  1  0
 18 19  2  0
 18 20  1  0
 20 21  2  0
 21 22  1  0
 22 23  2  0
 23 24  1  0
 24 25  1  0
 25 26  1  0
 26 27  1  0
 27 28  1  0
 28 29  1  0
 27 30  1  0
 30 31  1  0
 31 32  1  0
 32 33  1  0
 33 34  1  0
 34 35  1  0
 35 36  1  0
 35 37  1  0
 37 38  1  0
 38 39  1  0
 39 40  2  0
 40 41  1  0
 41 42  2  0
 42 43  1  0
 43 44  2  0
 44 45  1  0
 45 46  1  0
 46 47  1  0
 31 48  1  0
 23 49  1  0
 49 50  2  0
 50 51  1  0
 51 52  1  0
 52 53  2  0
 53 54  1  0
 54 55  2  0
 55 56  1  0
 56 57  1  0
 57 58  2  0
 58 59  1  0
 59 60  2  0
 13 61  1  0
 61 62  2  0
 62 63  1  0
 63 64  1  0
  7 65  1  0
 65 66  1  0
 66  3  1  0
 62 10  1  0
 50 20  1  0
 60 52  1  0
 29 24  1  0
 38 32  1  0
 44 39  1  0
 47 45  1  0
 59 55  1  0
 48 27  1  0
  1 67  1  0
  1 68  1  0
  1 69  1  0
  2 70  1  0
  2 71  1  0
  4 72  1  0
  5 73  1  0
  5 74  1  0
  6 75  1  0
  6 76  1  0
  7 77  1  1
  8 78  1  0
  8 79  1  0
  9 80  1  0
 11 81  1  0
 12 82  1  0
 17 83  1  0
 21 84  1  0
 22 85  1  0
 25 86  1  0
 25 87  1  0
 26 88  1  0
 26 89  1  0
 28 90  1  0
 28 91  1  0
 29 92  1  0
 29 93  1  0
 30 94  1  0
 30 95  1  0
 31 96  1  0
 33 97  1  0
 33 98  1  0
 34 99  1  0
 34100  1  0
 36101  1  0
 36102  1  0
 36103  1  0
 37104  1  0
 37105  1  0
 38106  1  1
 40107  1  0
 41108  1  0
 42109  1  0
 43110  1  0
 45111  1  0
 46112  1  0
 46113  1  0
 47114  1  0
 47115  1  0
 48116  1  0
 48117  1  0
 49118  1  0
 53119  1  0
 56120  1  0
 57121  1  0
 58122  1  0
 60123  1  0
 61124  1  0
 65125  1  0
 65126  1  0
 66127  1  0
 66128  1  0
M  CHG  2  63   1  64  -1
M  RAD  1  63   3
M  END
$$$$

     RDKit          3D

128137  0  0  0  0  0  0  0  0999 V2000
   11.1592    1.3319    3.8668 C   0  0  0  0  0  0  0  0  0  0  0  0
   10.8860   -0.1337    4.1764 C   0  0  0  0  0  0  0  0  0  0  0  0
   10.0825   -0.9120    3.1116 C   0  0  2  0  0  0  0  0  0  0  0  0
   10.1031   -2.2808    3.5721 O   0  0  0  0  0  0  0  0  0  0  0  0
   10.7611   -0.8748    1.7339 C   0  0  0  0  0  0  0  0  0  0  0  0
   10.0152   -1.6880    0.6696 C   0  0  0  0  0  0  0  0  0  0  0  0
    8.4818   -1.5946    0.7822 C   0  0  2  0  0  0  0  0  0  0  0  0
    7.7889   -1.6450   -0.5942 C   0  0  0  0  0  0  0  0  0  0  0  0
    8.1493   -0.4742   -1.4110 N   0  0  0  0  0  0  0  0  0  0  0  0
    7.2751   -0.4732   -2.5623 C   0  0  0  0  0  0  0  0  0  0  0  0
    7.5534   -1.2893   -3.6686 C   0  0  0  0  0  0  0  0  0  0  0  0
    6.5928   -1.4481   -4.6667 C   0  0  0  0  0  0  0  0  0  0  0  0
    5.4024   -0.7226   -4.5772 C   0  0  0  0  0  0  0  0  0  0  0  0
    3.9830   -1.1927   -5.5276 S   0  0  0  0  0  0  0  0  0  0  0  0
    3.6433   -0.0880   -6.4025 O   0  0  0  0  0  0  0  0  0  0  0  0
    4.2398   -2.5138   -6.0756 O   0  0  0  0  0  0  0  0  0  0  0  0
    2.8291   -1.3434   -4.3360 N   0  0  0  0  0  0  0  0  0  0  0  0
    1.5119   -1.7475   -4.5283 C   0  0  0  0  0  0  0  0  0  0  0  0
    1.0527   -2.1683   -5.5824 O   0  0  0  0  0  0  0  0  0  0  0  0
    0.6599   -1.6953   -3.3149 C   0  0  0  0  0  0  0  0  0  0  0  0
   -0.2807   -2.7095   -3.1237 C   0  0  0  0  0  0  0  0  0  0  0  0
   -1.0721   -2.7344   -1.9651 C   0  0  0  0  0  0  0  0  0  0  0  0
   -0.9341   -1.7803   -0.9415 C   0  0  0  0  0  0  0  0  0  0  0  0
   -1.7239   -1.8197    0.2108 N   0  0  0  0  0  0  0  0  0  0  0  0
   -2.1320   -3.1020    0.7821 C   0  0  0  0  0  0  0  0  0  0  0  0
   -3.5663   -2.9789    1.3169 C   0  0  0  0  0  0  0  0  0  0  0  0
   -3.8339   -1.5769    1.9027 C   0  0  0  0  0  0  0  0  0  0  0  0
   -2.5380   -0.9278    2.3884 C   0  0  0  0  0  0  0  0  0  0  0  0
   -1.5854   -0.7288    1.1987 C   0  0  0  0  0  0  0  0  0  0  0  0
   -5.0314   -1.5109    2.9027 C   0  0  0  0  0  0  0  0  0  0  0  0
   -5.9540   -1.2207    1.6849 C   0  0  0  0  0  0  0  0  0  0  0  0
   -6.9182   -0.1416    1.9974 N   0  0  0  0  0  0  0  0  0  0  0  0
   -7.8890   -0.6436    2.9962 C   0  0  0  0  0  0  0  0  0  0  0  0
   -8.9210   -1.6674    2.4718 C   0  0  0  0  0  0  0  0  0  0  0  0
   -9.6744   -1.1682    1.3132 N   0  0  0  0  0  0  0  0  0  0  0  0
  -10.5855   -2.1837    0.7956 C   0  0  0  0  0  0  0  0  0  0  0  0
   -8.7394   -0.7099    0.2613 C   0  0  0  0  0  0  0  0  0  0  0  0
   -7.6212    0.2856    0.7388 C   0  0  1  0  0  0  0  0  0  0  0  0
   -8.1336    1.7453    0.7814 C   0  0  0  0  0  0  0  0  0  0  0  0
   -9.2587    2.0702    1.5734 C   0  0  0  0  0  0  0  0  0  0  0  0
   -9.7914    3.3576    1.6138 C   0  0  0  0  0  0  0  0  0  0  0  0
   -9.2249    4.3555    0.8424 C   0  0  0  0  0  0  0  0  0  0  0  0
   -8.1293    4.0576    0.0341 C   0  0  0  0  0  0  0  0  0  0  0  0
   -7.5450    2.7696   -0.0170 C   0  0  0  0  0  0  0  0  0  0  0  0
   -6.3791    2.5280   -0.9661 C   0  0  0  0  0  0  0  0  0  0  0  0
   -4.9674    2.5009   -0.4309 C   0  0  0  0  0  0  0  0  0  0  0  0
   -5.3935    3.6269   -1.3144 C   0  0  0  0  0  0  0  0  0  0  0  0
   -4.6967   -0.6357    1.0009 C   0  0  0  0  0  0  0  0  0  0  0  0
   -0.0077   -0.7508   -1.1841 C   0  0  0  0  0  0  0  0  0  0  0  0
    0.7513   -0.6808   -2.3657 C   0  0  0  0  0  0  0  0  0  0  0  0
    1.5953    0.3832   -2.5947 O   0  0  0  0  0  0  0  0  0  0  0  0
    1.0661    1.6448   -2.4512 C   0  0  0  0  0  0  0  0  0  0  0  0
    1.7996    2.5970   -1.7453 C   0  0  0  0  0  0  0  0  0  0  0  0
    1.3992    3.8832   -1.5212 N   0  0  0  0  0  0  0  0  0  0  0  0
    0.2129    4.1642   -2.0838 C   0  0  0  0  0  0  0  0  0  0  0  0
   -0.3981    5.3837   -2.0076 N   0  0  0  0  0  0  0  0  0  0  0  0
   -1.5900    5.3549   -2.6878 C   0  0  0  0  0  0  0  0  0  0  0  0
   -1.7391    4.0873   -3.2138 C   0  0  0  0  0  0  0  0  0  0  0  0
   -0.6011    3.3233   -2.8317 C   0  0  0  0  0  0  0  0  0  0  0  0
   -0.1548    2.0093   -3.0354 C   0  0  0  0  0  0  0  0  0  0  0  0
    5.1926    0.1985   -3.5523 C   0  0  0  0  0  0  0  0  0  0  0  0
    6.0614    0.2543   -2.4636 C   0  0  0  0  0  0  0  0  0  0  0  0
    5.7279    0.9327   -1.3364 N   0  0  0  0  0  2  0  0  0  0  0  0
    4.4954    0.4193   -0.7916 O   0  0  0  0  0  0  0  0  0  0  0  0
    8.0439   -0.3908    1.6244 C   0  0  0  0  0  0  0  0  0  0  0  0
    8.6094   -0.4487    3.0485 C   0  0  0  0  0  0  0  0  0  0  0  0
   11.8166    1.4412    2.9994 H   0  0  0  0  0  0  0  0  0  0  0  0
   11.6634    1.8019    4.7181 H   0  0  0  0  0  0  0  0  0  0  0  0
   10.2397    1.8912    3.6770 H   0  0  0  0  0  0  0  0  0  0  0  0
   10.3599   -0.2013    5.1382 H   0  0  0  0  0  0  0  0  0  0  0  0
   11.8471   -0.6384    4.3433 H   0  0  0  0  0  0  0  0  0  0  0  0
    9.4567   -2.7709    3.0343 H   0  0  0  0  0  0  0  0  0  0  0  0
   10.8350    0.1601    1.3793 H   0  0  0  0  0  0  0  0  0  0  0  0
   11.7855   -1.2616    1.8035 H   0  0  0  0  0  0  0  0  0  0  0  0
   10.3048   -2.7439    0.7492 H   0  0  0  0  0  0  0  0  0  0  0  0
   10.3687   -1.3633   -0.3160 H   0  0  0  0  0  0  0  0  0  0  0  0
    8.1416   -2.4936    1.3155 H   0  0  0  0  0  0  0  0  0  0  0  0
    6.7054   -1.7187   -0.4340 H   0  0  0  0  0  0  0  0  0  0  0  0
    8.1052   -2.5624   -1.1082 H   0  0  0  0  0  0  0  0  0  0  0  0
    7.6912    0.3288   -0.9269 H   0  0  0  0  0  0  0  0  0  0  0  0
    8.4752   -1.8566   -3.6899 H   0  0  0  0  0  0  0  0  0  0  0  0
    6.7439   -2.1748   -5.4560 H   0  0  0  0  0  0  0  0  0  0  0  0
    3.1411   -1.0363   -3.3990 H   0  0  0  0  0  0  0  0  0  0  0  0
   -0.3976   -3.4895   -3.8723 H   0  0  0  0  0  0  0  0  0  0  0  0
   -1.8130   -3.5232   -1.8937 H   0  0  0  0  0  0  0  0  0  0  0  0
   -1.4479   -3.3616    1.6011 H   0  0  0  0  0  0  0  0  0  0  0  0
   -2.0949   -3.9493    0.0922 H   0  0  0  0  0  0  0  0  0  0  0  0
   -4.2746   -3.1986    0.5088 H   0  0  0  0  0  0  0  0  0  0  0  0
   -3.7142   -3.7504    2.0822 H   0  0  0  0  0  0  0  0  0  0  0  0
   -2.0649   -1.5669    3.1449 H   0  0  0  0  0  0  0  0  0  0  0  0
   -2.7203    0.0387    2.8733 H   0  0  0  0  0  0  0  0  0  0  0  0
   -1.8365    0.2245    0.7164 H   0  0  0  0  0  0  0  0  0  0  0  0
   -0.5598   -0.6653    1.5826 H   0  0  0  0  0  0  0  0  0  0  0  0
   -4.9463   -0.6963    3.6342 H   0  0  0  0  0  0  0  0  0  0  0  0
   -5.2520   -2.4347    3.4464 H   0  0  0  0  0  0  0  0  0  0  0  0
   -6.3548   -2.1181    1.2002 H   0  0  0  0  0  0  0  0  0  0  0  0
   -8.4162    0.2105    3.4338 H   0  0  0  0  0  0  0  0  0  0  0  0
   -7.3685   -1.0872    3.8534 H   0  0  0  0  0  0  0  0  0  0  0  0
   -8.4104   -2.6076    2.2266 H   0  0  0  0  0  0  0  0  0  0  0  0
   -9.6205   -1.8891    3.2873 H   0  0  0  0  0  0  0  0  0  0  0  0
  -11.1706   -1.7846   -0.0403 H   0  0  0  0  0  0  0  0  0  0  0  0
  -11.3032   -2.4841    1.5671 H   0  0  0  0  0  0  0  0  0  0  0  0
  -10.0577   -3.0798    0.4498 H   0  0  0  0  0  0  0  0  0  0  0  0
   -8.2402   -1.5869   -0.1742 H   0  0  0  0  0  0  0  0  0  0  0  0
   -9.3128   -0.2423   -0.5499 H   0  0  0  0  0  0  0  0  0  0  0  0
   -6.8824    0.2606   -0.0685 H   0  0  0  0  0  0  0  0  0  0  0  0
   -9.7577    1.3065    2.1618 H   0  0  0  0  0  0  0  0  0  0  0  0
  -10.6541    3.5687    2.2384 H   0  0  0  0  0  0  0  0  0  0  0  0
   -9.6341    5.3610    0.8556 H   0  0  0  0  0  0  0  0  0  0  0  0
   -7.7219    4.8549   -0.5838 H   0  0  0  0  0  0  0  0  0  0  0  0
   -6.5966    1.8440   -1.7852 H   0  0  0  0  0  0  0  0  0  0  0  0
   -4.8031    2.7207    0.6185 H   0  0  0  0  0  0  0  0  0  0  0  0
   -4.2713    1.7793   -0.8444 H   0  0  0  0  0  0  0  0  0  0  0  0
   -4.9965    3.6506   -2.3231 H   0  0  0  0  0  0  0  0  0  0  0  0
   -5.4570    4.6028   -0.8495 H   0  0  0  0  0  0  0  0  0  0  0  0
   -4.5154    0.4249    1.2054 H   0  0  0  0  0  0  0  0  0  0  0  0
   -4.6244   -0.8015   -0.0779 H   0  0  0  0  0  0  0  0  0  0  0  0
    0.1735    0.0287   -0.4483 H   0  0  0  0  0  0  0  0  0  0  0  0
    2.7692    2.3262   -1.3171 H   0  0  0  0  0  0  0  0  0  0  0  0
    0.0095    6.1656   -1.5180 H   0  0  0  0  0  0  0  0  0  0  0  0
   -2.2169    6.2334   -2.7421 H   0  0  0  0  0  0  0  0  0  0  0  0
   -2.5723    3.7412   -3.8094 H   0  0  0  0  0  0  0  0  0  0  0  0
   -0.7300    1.3066   -3.6244 H   0  0  0  0  0  0  0  0  0  0  0  0
    4.2725    0.7750   -3.4769 H   0  0  0  0  0  0  0  0  0  0  0  0
    6.9499   -0.3403    1.6781 H   0  0  0  0  0  0  0  0  0  0  0  0
    8.3764    0.5429    1.1542 H   0  0  0  0  0  0  0  0  0  0  0  0
    7.9832   -1.1250    3.6452 H   0  0  0  0  0  0  0  0  0  0  0  0
    8.4807    0.5451    3.4910 H   0  0  0  0  0  0  0  0  0  0  0  0
  1  2  1  0
  2  3  1  0
  3  4  1  1
  3  5  1  0
  5  6  1  0
  6  7  1  0
  7  8  1  0
  8  9  1  0
  9 10  1  0
 10 11  2  0
 11 12  1  0
 12 13  2  0
 13 14  1  0
 14 15  2  0
 14 16  2  0
 14 17  1  0
 17 18  1  0
 18 19  2  0
 18 20  1  0
 20 21  2  0
 21 22  1  0
 22 23  2  0
 23 24  1  0
 24 25  1  0
 25 26  1  0
 26 27  1  0
 27 28  1  0
 28 29  1  0
 27 30  1  0
 30 31  1  0
 31 32  1  0
 32 33  1  0
 33 34  1  0
 34 35  1  0
 35 36  1  0
 35 37  1  0
 37 38  1  0
 38 39  1  0
 39 40  2  0
 40 41  1  0
 41 42  2  0
 42 43  1  0
 43 44  2  0
 44 45  1  0
 45 46  1  0
 46 47  1  0
 31 48  1  0
 23 49  1  0
 49 50  2  0
 50 51  1  0
 51 52  1  0
 52 53  2  0
 53 54  1  0
 54 55  2  0
 55 56  1  0
 56 57  1  0
 57 58  2  0
 58 59  1  0
 59 60  2  0
 13 61  1  0
 61 62  2  0
 62 63  1  0
 63 64  1  0
  7 65  1  0
 65 66  1  0
 66  3  1  0
 62 10  1  0
 50 20  1  0
 60 52  1  0
 29 24  1  0
 38 32  1  0
 44 39  1  0
 47 45  1  0
 59 55  1  0
 48 27  1  0
  1 67  1  0
  1 68  1  0
  1 69  1  0
  2 70  1  0
  2 71  1  0
  4 72  1  0
  5 73  1  0
  5 74  1  0
  6 75  1  0
  6 76  1  0
  7 77  1  1
  8 78  1  0
  8 79  1  0
  9 80  1  0
 11 81  1  0
 12 82  1  0
 17 83  1  0
 21 84  1  0
 22 85  1  0
 25 86  1  0
 25 87  1  0
 26 88  1  0
 26 89  1  0
 28 90  1  0
 28 91  1  0
 29 92  1  0
 29 93  1  0
 30 94  1  0
 30 95  1  0
 31 96  1  0
 33 97  1  0
 33 98  1  0
 34 99  1  0
 34100  1  0
 36101  1  0
 36102  1  0
 36103  1  0
 37104  1  0
 37105  1  0
 38106  1  6
 40107  1  0
 41108  1  0
 42109  1  0
 43110  1  0
 45111  1  0
 46112  1  0
 46113  1  0
 47114  1  0
 47115  1  0
 48116  1  0
 48117  1  0
 49118  1  0
 53119  1  0
 56120  1  0
 57121  1  0
 58122  1  0
 60123  1  0
 61124  1  0
 65125  1  0
 65126  1  0
 66127  1  0
 66128  1  0
M  CHG  2  63   1  64  -1
M  RAD  1  63   3
M  END
$$$$

     RDKit          3D

128137  0  0  0  0  0  0  0  0999 V2000
    8.6814    3.2202    1.1788 C   0  0  0  0  0  0  0  0  0  0  0  0
    9.5795    2.7832    2.3279 C   0  0  0  0  0  0  0  0  0  0  0  0
    9.9546    1.2848    2.3704 C   0  0  2  0  0  0  0  0  0  0  0  0
   10.7617    1.1098    3.5575 O   0  0  0  0  0  0  0  0  0  0  0  0
   10.8220    0.8670    1.1669 C   0  0  0  0  0  0  0  0  0  0  0  0
   11.1468   -0.6326    1.1722 C   0  0  0  0  0  0  0  0  0  0  0  0
    9.8860   -1.5108    1.2577 C   0  0  2  0  0  0  0  0  0  0  0  0
    9.0965   -1.4451   -0.0688 C   0  0  0  0  0  0  0  0  0  0  0  0
    7.9219   -2.3253   -0.0188 N   0  0  0  0  0  0  0  0  0  0  0  0
    7.2583   -2.2407   -1.2993 C   0  0  0  0  0  0  0  0  0  0  0  0
    7.5276   -3.2134   -2.2765 C   0  0  0  0  0  0  0  0  0  0  0  0
    6.8781   -3.1594   -3.5080 C   0  0  0  0  0  0  0  0  0  0  0  0
    6.0443   -2.0752   -3.7751 C   0  0  0  0  0  0  0  0  0  0  0  0
    4.9362   -2.0914   -5.1573 S   0  0  0  0  0  0  0  0  0  0  0  0
    4.8242   -3.4660   -5.6152 O   0  0  0  0  0  0  0  0  0  0  0  0
    5.3459   -1.0436   -6.0710 O   0  0  0  0  0  0  0  0  0  0  0  0
    3.5013   -1.6827   -4.4208 N   0  0  0  0  0  0  0  0  0  0  0  0
    2.3072   -1.3776   -5.0631 C   0  0  0  0  0  0  0  0  0  0  0  0
    2.1196   -1.5237   -6.2647 O   0  0  0  0  0  0  0  0  0  0  0  0
    1.2152   -0.8462   -4.1914 C   0  0  0  0  0  0  0  0  0  0  0  0
    0.1583   -0.1826   -4.8226 C   0  0  0  0  0  0  0  0  0  0  0  0
   -0.8731    0.4078   -4.0756 C   0  0  0  0  0  0  0  0  0  0  0  0
   -0.8871    0.3939   -2.6702 C   0  0  0  0  0  0  0  0  0  0  0  0
   -1.9042    1.0062   -1.9255 N   0  0  0  0  0  0  0  0  0  0  0  0
   -2.9577    1.7477   -2.6351 C   0  0  0  0  0  0  0  0  0  0  0  0
   -3.9421    2.4168   -1.6668 C   0  0  0  0  0  0  0  0  0  0  0  0
   -4.1430    1.5338   -0.4310 C   0  0  0  0  0  0  0  0  0  0  0  0
   -2.8212    1.3483    0.3317 C   0  0  0  0  0  0  0  0  0  0  0  0
   -1.5985    1.5208   -0.5812 C   0  0  0  0  0  0  0  0  0  0  0  0
   -4.9521    0.2143   -0.6776 C   0  0  0  0  0  0  0  0  0  0  0  0
   -6.2429    1.0166   -0.3623 C   0  0  0  0  0  0  0  0  0  0  0  0
   -7.1421    0.2295    0.5045 N   0  0  0  0  0  0  0  0  0  0  0  0
   -7.7059   -0.9080   -0.2572 C   0  0  0  0  0  0  0  0  0  0  0  0
   -8.9633   -0.5762   -1.0909 C   0  0  0  0  0  0  0  0  0  0  0  0
  -10.0833   -0.0070   -0.3165 N   0  0  0  0  0  0  0  0  0  0  0  0
  -11.2085   -0.9323   -0.2236 C   0  0  0  0  0  0  0  0  0  0  0  0
   -9.6391    0.4095    1.0328 C   0  0  0  0  0  0  0  0  0  0  0  0
   -8.2398    1.1095    1.0300 C   0  0  1  0  0  0  0  0  0  0  0  0
   -7.9338    1.6028    2.4491 C   0  0  0  0  0  0  0  0  0  0  0  0
   -7.5161    0.6639    3.4188 C   0  0  0  0  0  0  0  0  0  0  0  0
   -7.2123    1.0541    4.7201 C   0  0  0  0  0  0  0  0  0  0  0  0
   -7.3173    2.3904    5.0759 C   0  0  0  0  0  0  0  0  0  0  0  0
   -7.7315    3.3302    4.1301 C   0  0  0  0  0  0  0  0  0  0  0  0
   -8.0652    2.9699    2.8068 C   0  0  0  0  0  0  0  0  0  0  0  0
   -8.4827    4.0431    1.8183 C   0  0  0  0  0  0  0  0  0  0  0  0
   -9.9130    4.1080    1.3312 C   0  0  0  0  0  0  0  0  0  0  0  0
   -9.3886    5.1838    2.2283 C   0  0  0  0  0  0  0  0  0  0  0  0
   -5.3387    1.9519    0.4833 C   0  0  0  0  0  0  0  0  0  0  0  0
    0.1594   -0.3216   -2.0619 C   0  0  0  0  0  0  0  0  0  0  0  0
    1.1853   -0.9486   -2.7990 C   0  0  0  0  0  0  0  0  0  0  0  0
    2.2005   -1.6163   -2.1487 O   0  0  0  0  0  0  0  0  0  0  0  0
    1.8686   -2.5251   -1.1731 C   0  0  0  0  0  0  0  0  0  0  0  0
    2.6324   -2.5433   -0.0063 C   0  0  0  0  0  0  0  0  0  0  0  0
    2.4352   -3.3961    1.0408 N   0  0  0  0  0  0  0  0  0  0  0  0
    1.4370   -4.2658    0.8241 C   0  0  0  0  0  0  0  0  0  0  0  0
    1.0623   -5.2315    1.7143 N   0  0  0  0  0  0  0  0  0  0  0  0
    0.0201   -5.9622    1.2017 C   0  0  0  0  0  0  0  0  0  0  0  0
   -0.2726   -5.4516   -0.0474 C   0  0  0  0  0  0  0  0  0  0  0  0
    0.6220   -4.3730   -0.2952 C   0  0  0  0  0  0  0  0  0  0  0  0
    0.8484   -3.4705   -1.3453 C   0  0  0  0  0  0  0  0  0  0  0  0
    5.8827   -1.0455   -2.8468 C   0  0  0  0  0  0  0  0  0  0  0  0
    6.3942   -1.1423   -1.5500 C   0  0  0  0  0  0  0  0  0  0  0  0
    6.0854   -0.2572   -0.5630 N   0  0  0  0  0  2  0  0  0  0  0  0
    4.7873    0.3401   -0.7206 O   0  0  0  0  0  0  0  0  0  0  0  0
    9.0691   -1.1054    2.4961 C   0  0  0  0  0  0  0  0  0  0  0  0
    8.7178    0.3838    2.5174 C   0  0  0  0  0  0  0  0  0  0  0  0
    8.5163    4.3022    1.2296 H   0  0  0  0  0  0  0  0  0  0  0  0
    7.7003    2.7394    1.2246 H   0  0  0  0  0  0  0  0  0  0  0  0
    9.1307    3.0041    0.2062 H   0  0  0  0  0  0  0  0  0  0  0  0
   10.4998    3.3818    2.2974 H   0  0  0  0  0  0  0  0  0  0  0  0
    9.0946    3.0568    3.2743 H   0  0  0  0  0  0  0  0  0  0  0  0
   11.5452    1.6723    3.4488 H   0  0  0  0  0  0  0  0  0  0  0  0
   10.3280    1.1221    0.2245 H   0  0  0  0  0  0  0  0  0  0  0  0
   11.7714    1.4179    1.1821 H   0  0  0  0  0  0  0  0  0  0  0  0
   11.7981   -0.8575    2.0259 H   0  0  0  0  0  0  0  0  0  0  0  0
   11.7212   -0.8833    0.2722 H   0  0  0  0  0  0  0  0  0  0  0  0
   10.2056   -2.5524    1.3989 H   0  0  0  0  0  0  0  0  0  0  0  0
    9.7640   -1.7731   -0.8775 H   0  0  0  0  0  0  0  0  0  0  0  0
    8.8091   -0.4119   -0.2891 H   0  0  0  0  0  0  0  0  0  0  0  0
    7.2062   -1.7908    0.5189 H   0  0  0  0  0  0  0  0  0  0  0  0
    8.1851   -4.0387   -2.0314 H   0  0  0  0  0  0  0  0  0  0  0  0
    6.9908   -3.9664   -4.2218 H   0  0  0  0  0  0  0  0  0  0  0  0
    3.6002   -1.4586   -3.4190 H   0  0  0  0  0  0  0  0  0  0  0  0
    0.1406   -0.0963   -5.9072 H   0  0  0  0  0  0  0  0  0  0  0  0
   -1.6500    0.9125   -4.6402 H   0  0  0  0  0  0  0  0  0  0  0  0
   -2.5303    2.5273   -3.2783 H   0  0  0  0  0  0  0  0  0  0  0  0
   -3.5199    1.0507   -3.2687 H   0  0  0  0  0  0  0  0  0  0  0  0
   -3.5495    3.3945   -1.3579 H   0  0  0  0  0  0  0  0  0  0  0  0
   -4.8817    2.6214   -2.1929 H   0  0  0  0  0  0  0  0  0  0  0  0
   -2.7880    0.3583    0.8028 H   0  0  0  0  0  0  0  0  0  0  0  0
   -2.7423    2.0804    1.1452 H   0  0  0  0  0  0  0  0  0  0  0  0
   -0.7468    1.0540   -0.0814 H   0  0  0  0  0  0  0  0  0  0  0  0
   -1.3422    2.5857   -0.6646 H   0  0  0  0  0  0  0  0  0  0  0  0
   -4.9005   -0.2033   -1.6875 H   0  0  0  0  0  0  0  0  0  0  0  0
   -4.7189   -0.5902    0.0328 H   0  0  0  0  0  0  0  0  0  0  0  0
   -6.7046    1.4912   -1.2366 H   0  0  0  0  0  0  0  0  0  0  0  0
   -7.9633   -1.6946    0.4651 H   0  0  0  0  0  0  0  0  0  0  0  0
   -6.9565   -1.3692   -0.9111 H   0  0  0  0  0  0  0  0  0  0  0  0
   -9.2719   -1.4759   -1.6387 H   0  0  0  0  0  0  0  0  0  0  0  0
   -8.6916    0.1577   -1.8599 H   0  0  0  0  0  0  0  0  0  0  0  0
  -12.0353   -0.4788    0.3348 H   0  0  0  0  0  0  0  0  0  0  0  0
  -10.9325   -1.8716    0.2693 H   0  0  0  0  0  0  0  0  0  0  0  0
  -11.5958   -1.1661   -1.2215 H   0  0  0  0  0  0  0  0  0  0  0  0
   -9.6088   -0.4576    1.7085 H   0  0  0  0  0  0  0  0  0  0  0  0
  -10.3917    1.0918    1.4463 H   0  0  0  0  0  0  0  0  0  0  0  0
   -8.3377    1.9705    0.3569 H   0  0  0  0  0  0  0  0  0  0  0  0
   -7.3986   -0.3829    3.1436 H   0  0  0  0  0  0  0  0  0  0  0  0
   -6.8735    0.3181    5.4440 H   0  0  0  0  0  0  0  0  0  0  0  0
   -7.0620    2.7085    6.0828 H   0  0  0  0  0  0  0  0  0  0  0  0
   -7.7823    4.3749    4.4289 H   0  0  0  0  0  0  0  0  0  0  0  0
   -7.7158    4.3043    1.0898 H   0  0  0  0  0  0  0  0  0  0  0  0
  -10.6449    3.4277    1.7496 H   0  0  0  0  0  0  0  0  0  0  0  0
  -10.0740    4.3418    0.2847 H   0  0  0  0  0  0  0  0  0  0  0  0
   -9.1939    6.1584    1.7952 H   0  0  0  0  0  0  0  0  0  0  0  0
   -9.7792    5.2214    3.2386 H   0  0  0  0  0  0  0  0  0  0  0  0
   -5.6047    3.0128    0.4559 H   0  0  0  0  0  0  0  0  0  0  0  0
   -5.1983    1.6580    1.5315 H   0  0  0  0  0  0  0  0  0  0  0  0
    0.2192   -0.4136   -0.9819 H   0  0  0  0  0  0  0  0  0  0  0  0
    3.4574   -1.8335    0.1164 H   0  0  0  0  0  0  0  0  0  0  0  0
    1.5208   -5.3551    2.6038 H   0  0  0  0  0  0  0  0  0  0  0  0
   -0.4122   -6.7787    1.7624 H   0  0  0  0  0  0  0  0  0  0  0  0
   -1.0417   -5.8141   -0.7149 H   0  0  0  0  0  0  0  0  0  0  0  0
    0.2640   -3.5113   -2.2554 H   0  0  0  0  0  0  0  0  0  0  0  0
    5.2616   -0.1780   -3.0690 H   0  0  0  0  0  0  0  0  0  0  0  0
    8.1516   -1.6992    2.5684 H   0  0  0  0  0  0  0  0  0  0  0  0
    9.6512   -1.3461    3.3952 H   0  0  0  0  0  0  0  0  0  0  0  0
    7.9967    0.5835    1.7188 H   0  0  0  0  0  0  0  0  0  0  0  0
    8.2129    0.6004    3.4673 H   0  0  0  0  0  0  0  0  0  0  0  0
  1  2  1  0
  2  3  1  0
  3  4  1  1
  3  5  1  0
  5  6  1  0
  6  7  1  0
  7  8  1  0
  8  9  1  0
  9 10  1  0
 10 11  2  0
 11 12  1  0
 12 13  2  0
 13 14  1  0
 14 15  2  0
 14 16  2  0
 14 17  1  0
 17 18  1  0
 18 19  2  0
 18 20  1  0
 20 21  2  0
 21 22  1  0
 22 23  2  0
 23 24  1  0
 24 25  1  0
 25 26  1  0
 26 27  1  0
 27 28  1  0
 28 29  1  0
 27 30  1  0
 30 31  1  0
 31 32  1  0
 32 33  1  0
 33 34  1  0
 34 35  1  0
 35 36  1  0
 35 37  1  0
 37 38  1  0
 38 39  1  0
 39 40  2  0
 40 41  1  0
 41 42  2  0
 42 43  1  0
 43 44  2  0
 44 45  1  0
 45 46  1  0
 46 47  1  0
 31 48  1  0
 23 49  1  0
 49 50  2  0
 50 51  1  0
 51 52  1  0
 52 53  2  0
 53 54  1  0
 54 55  2  0
 55 56  1  0
 56 57  1  0
 57 58  2  0
 58 59  1  0
 59 60  2  0
 13 61  1  0
 61 62  2  0
 62 63  1  0
 63 64  1  0
  7 65  1  0
 65 66  1  0
 66  3  1  0
 62 10  1  0
 50 20  1  0
 60 52  1  0
 29 24  1  0
 38 32  1  0
 44 39  1  0
 47 45  1  0
 59 55  1  0
 48 27  1  0
  1 67  1  0
  1 68  1  0
  1 69  1  0
  2 70  1  0
  2 71  1  0
  4 72  1  0
  5 73  1  0
  5 74  1  0
  6 75  1  0
  6 76  1  0
  7 77  1  1
  8 78  1  0
  8 79  1  0
  9 80  1  0
 11 81  1  0
 12 82  1  0
 17 83  1  0
 21 84  1  0
 22 85  1  0
 25 86  1  0
 25 87  1  0
 26 88  1  0
 26 89  1  0
 28 90  1  0
 28 91  1  0
 29 92  1  0
 29 93  1  0
 30 94  1  0
 30 95  1  0
 31 96  1  0
 33 97  1  0
 33 98  1  0
 34 99  1  0
 34100  1  0
 36101  1  0
 36102  1  0
 36103  1  0
 37104  1  0
 37105  1  0
 38106  1  6
 40107  1  0
 41108  1  0
 42109  1  0
 43110  1  0
 45111  1  0
 46112  1  0
 46113  1  0
 47114  1  0
 47115  1  0
 48116  1  0
 48117  1  0
 49118  1  0
 53119  1  0
 56120  1  0
 57121  1  0
 58122  1  0
 60123  1  0
 61124  1  0
 65125  1  0
 65126  1  0
 66127  1  0
 66128  1  0
M  CHG  2  63   1  64  -1
M  RAD  1  63   3
M  END
$$$$
