
     RDKit          3D

125134  0  0  0  0  0  0  0  0999 V2000
   12.6564    1.1719   -5.6125 C   0  0  0  0  0  0  0  0  0  0  0  0
   12.5874    1.9644   -4.3911 N   0  0  0  0  0  0  0  0  0  0  0  0
   11.5024    1.5142   -3.5002 C   0  0  0  0  0  0  0  0  0  0  0  0
   11.7523    0.1261   -2.8704 C   0  0  0  0  0  0  0  0  0  0  0  0
   12.8627   -0.4091   -2.8531 O   0  0  0  0  0  0  0  0  0  0  0  0
   10.6405   -0.5077   -2.3070 N   0  0  0  0  0  0  0  0  0  0  0  0
    9.3277    0.1168   -2.1426 C   0  0  0  0  0  0  0  0  0  0  0  0
    8.5809   -0.4226   -0.9264 C   0  0  0  0  0  0  0  0  0  0  0  0
    8.4349   -1.9573   -0.9394 C   0  0  0  0  0  0  0  0  0  0  0  0
    7.0013   -2.3855   -1.2388 C   0  0  0  0  0  0  0  0  0  0  0  0
    6.5832   -2.3302   -2.5929 C   0  0  0  0  0  0  0  0  0  0  0  0
    5.3342   -2.7855   -3.0082 C   0  0  0  0  0  0  0  0  0  0  0  0
    4.4631   -3.3164   -2.0780 C   0  0  0  0  0  0  0  0  0  0  0  0
    4.8323   -3.3429   -0.7351 C   0  0  0  0  0  0  0  0  0  0  0  0
    6.0700   -2.8280   -0.2621 C   0  0  0  0  0  0  0  0  0  0  0  0
    6.2697   -2.8903    1.2590 C   0  0  1  0  0  0  0  0  0  0  0  0
    7.3199   -2.0632    2.0257 C   0  0  0  0  0  0  0  0  0  0  0  0
    6.8083   -1.9629    3.4652 C   0  0  0  0  0  0  0  0  0  0  0  0
    5.4790   -2.7079    3.4792 C   0  0  0  0  0  0  0  0  0  0  0  0
    5.0288   -2.6761    2.0747 N   0  0  0  0  0  0  0  0  0  0  0  0
    4.1573   -1.5939    1.8579 C   0  0  0  0  0  0  0  0  0  0  0  0
    4.4831   -0.4361    1.1462 C   0  0  0  0  0  0  0  0  0  0  0  0
    3.5547    0.6008    0.9724 C   0  0  0  0  0  0  0  0  0  0  0  0
    2.2599    0.5144    1.5004 C   0  0  0  0  0  0  0  0  0  0  0  0
    1.2877    1.6009    1.3097 C   0  0  0  0  0  0  0  0  0  0  0  0
    1.5913    2.9170    1.6840 C   0  0  0  0  0  0  0  0  0  0  0  0
    0.6715    3.9541    1.4898 C   0  0  0  0  0  0  0  0  0  0  0  0
   -0.5857    3.7074    0.9155 C   0  0  0  0  0  0  0  0  0  0  0  0
   -1.5093    4.8781    0.7853 C   0  0  0  0  0  0  0  0  0  0  0  0
   -1.1692    5.9854    1.1693 O   0  0  0  0  0  0  0  0  0  0  0  0
   -2.7702    4.6182    0.2414 N   0  0  0  0  0  0  0  0  0  0  0  0
   -3.9811    5.7364    0.1207 S   0  0  0  0  0  0  0  0  0  0  0  0
   -4.2027    6.1156   -1.2513 O   0  0  0  0  0  0  0  0  0  0  0  0
   -4.1064    6.5923    1.2712 O   0  0  0  0  0  0  0  0  0  0  0  0
   -5.5151    4.8051    0.3540 C   0  0  0  0  0  0  0  0  0  0  0  0
   -6.5661    4.8819    1.1780 C   0  0  0  0  0  0  0  0  0  0  0  0
   -7.1664    3.7286    0.6642 C   0  0  0  0  0  0  0  0  0  0  0  0
   -7.6605    2.6250    0.0986 C   0  0  0  0  0  0  0  0  0  0  0  0
   -8.6866    1.8404    0.3335 N   0  0  0  0  0  0  0  0  0  0  0  0
   -8.9837    0.5797   -0.3353 C   0  0  0  0  0  0  0  0  0  0  0  0
  -10.0794   -0.2000    0.4146 C   0  0  1  0  0  0  0  0  0  0  0  0
  -11.4550    0.4657    0.2988 C   0  0  0  0  0  0  0  0  0  0  0  0
  -12.5284   -0.2569    1.1264 C   0  0  0  0  0  0  0  0  0  0  0  0
  -12.2756   -1.7673    1.2967 C   0  0  2  0  0  0  0  0  0  0  0  0
  -13.5924   -2.5208    1.4954 C   0  0  0  0  0  0  0  0  0  0  0  0
  -11.4773   -1.9765    2.4681 O   0  0  0  0  0  0  0  0  0  0  0  0
  -11.5021   -2.3296    0.1009 C   0  0  0  0  0  0  0  0  0  0  0  0
  -10.1431   -1.6492   -0.1051 C   0  0  0  0  0  0  0  0  0  0  0  0
   -6.6210    2.6372   -0.8781 C   0  0  0  0  0  0  0  0  0  0  0  0
   -6.2266    1.8305   -2.0595 N   0  0  0  0  0  0  0  0  0  0  0  0
   -7.0285    1.0014   -2.4988 O   0  0  0  0  0  0  0  0  0  0  0  0
   -5.0989    2.0632   -2.5170 O   0  0  0  0  0  0  0  0  0  0  0  0
   -6.0368    3.6916   -0.3203 C   0  0  0  0  0  0  0  0  0  0  0  0
   -0.9013    2.3887    0.5552 C   0  0  0  0  0  0  0  0  0  0  0  0
   -2.0876    2.0901   -0.0772 O   0  0  0  0  0  0  0  0  0  0  0  0
   -2.9503    1.2456    0.5844 C   0  0  0  0  0  0  0  0  0  0  0  0
   -3.2985    1.3900    1.9260 C   0  0  0  0  0  0  0  0  0  0  0  0
   -4.2183    0.6452    2.5844 N   0  0  0  0  0  0  0  0  0  0  0  0
   -4.7970   -0.2827    1.8001 C   0  0  0  0  0  0  0  0  0  0  0  0
   -5.7639   -1.1569    2.2162 N   0  0  0  0  0  0  0  0  0  0  0  0
   -6.1386   -1.9647    1.1724 C   0  0  0  0  0  0  0  0  0  0  0  0
   -5.4011   -1.5968    0.0660 C   0  0  0  0  0  0  0  0  0  0  0  0
   -4.5459   -0.5311    0.4548 C   0  0  0  0  0  0  0  0  0  0  0  0
   -3.5847    0.2680   -0.1822 C   0  0  0  0  0  0  0  0  0  0  0  0
    0.0312    1.3540    0.7372 C   0  0  0  0  0  0  0  0  0  0  0  0
    1.9235   -0.6457    2.2075 C   0  0  0  0  0  0  0  0  0  0  0  0
    2.8560   -1.6761    2.3803 C   0  0  0  0  0  0  0  0  0  0  0  0
    9.4976   -2.6429   -1.8294 C   0  0  0  0  0  0  0  0  0  0  0  0
   10.8096   -1.8682   -1.7999 C   0  0  0  0  0  0  0  0  0  0  0  0
   11.7201    1.2267   -6.1777 H   0  0  0  0  0  0  0  0  0  0  0  0
   12.8913    0.1226   -5.4128 H   0  0  0  0  0  0  0  0  0  0  0  0
   13.4542    1.5641   -6.2512 H   0  0  0  0  0  0  0  0  0  0  0  0
   12.4316    2.9397   -4.6378 H   0  0  0  0  0  0  0  0  0  0  0  0
   10.5561    1.5174   -4.0508 H   0  0  0  0  0  0  0  0  0  0  0  0
   11.4271    2.2298   -2.6740 H   0  0  0  0  0  0  0  0  0  0  0  0
    9.4390    1.2000   -2.0381 H   0  0  0  0  0  0  0  0  0  0  0  0
    8.7623   -0.0689   -3.0621 H   0  0  0  0  0  0  0  0  0  0  0  0
    9.1551   -0.1429   -0.0324 H   0  0  0  0  0  0  0  0  0  0  0  0
    7.6101    0.0782   -0.8323 H   0  0  0  0  0  0  0  0  0  0  0  0
    8.6880   -2.3122    0.0567 H   0  0  0  0  0  0  0  0  0  0  0  0
    7.2443   -1.9374   -3.3623 H   0  0  0  0  0  0  0  0  0  0  0  0
    5.0552   -2.7408   -4.0570 H   0  0  0  0  0  0  0  0  0  0  0  0
    3.4929   -3.6976   -2.3827 H   0  0  0  0  0  0  0  0  0  0  0  0
    4.1157   -3.7573   -0.0247 H   0  0  0  0  0  0  0  0  0  0  0  0
    6.5497   -3.9430    1.4256 H   0  0  0  0  0  0  0  0  0  0  0  0
    7.4414   -1.0572    1.6145 H   0  0  0  0  0  0  0  0  0  0  0  0
    8.2987   -2.5535    2.0257 H   0  0  0  0  0  0  0  0  0  0  0  0
    7.5137   -2.3873    4.1868 H   0  0  0  0  0  0  0  0  0  0  0  0
    6.6608   -0.9096    3.7315 H   0  0  0  0  0  0  0  0  0  0  0  0
    5.6409   -3.7539    3.7679 H   0  0  0  0  0  0  0  0  0  0  0  0
    4.7783   -2.2792    4.2052 H   0  0  0  0  0  0  0  0  0  0  0  0
    5.4636   -0.3063    0.7027 H   0  0  0  0  0  0  0  0  0  0  0  0
    3.8554    1.4751    0.3986 H   0  0  0  0  0  0  0  0  0  0  0  0
    2.5528    3.1471    2.1421 H   0  0  0  0  0  0  0  0  0  0  0  0
    0.9484    4.9616    1.8004 H   0  0  0  0  0  0  0  0  0  0  0  0
   -2.8846    3.8201   -0.3785 H   0  0  0  0  0  0  0  0  0  0  0  0
   -6.8137    5.5626    1.9891 H   0  0  0  0  0  0  0  0  0  0  0  0
   -9.2788    2.0250    1.1423 H   0  0  0  0  0  0  0  0  0  0  0  0
   -8.0777   -0.0344   -0.3639 H   0  0  0  0  0  0  0  0  0  0  0  0
   -9.3104    0.7746   -1.3629 H   0  0  0  0  0  0  0  0  0  0  0  0
   -9.8037   -0.2297    1.4779 H   0  0  0  0  0  0  0  0  0  0  0  0
  -11.4182    1.5158    0.6110 H   0  0  0  0  0  0  0  0  0  0  0  0
  -11.7639    0.4720   -0.7551 H   0  0  0  0  0  0  0  0  0  0  0  0
  -13.4951   -0.0790    0.6388 H   0  0  0  0  0  0  0  0  0  0  0  0
  -12.5840    0.2183    2.1144 H   0  0  0  0  0  0  0  0  0  0  0  0
  -13.4070   -3.5821    1.6965 H   0  0  0  0  0  0  0  0  0  0  0  0
  -14.2389   -2.4423    0.6152 H   0  0  0  0  0  0  0  0  0  0  0  0
  -14.1388   -2.1312    2.3620 H   0  0  0  0  0  0  0  0  0  0  0  0
  -12.0020   -1.7035    3.2404 H   0  0  0  0  0  0  0  0  0  0  0  0
  -12.1025   -2.2101   -0.8105 H   0  0  0  0  0  0  0  0  0  0  0  0
  -11.3293   -3.4062    0.2242 H   0  0  0  0  0  0  0  0  0  0  0  0
   -9.3642   -2.2330    0.4012 H   0  0  0  0  0  0  0  0  0  0  0  0
   -9.9001   -1.6900   -1.1746 H   0  0  0  0  0  0  0  0  0  0  0  0
   -2.8452    2.1622    2.5424 H   0  0  0  0  0  0  0  0  0  0  0  0
   -6.1307   -1.1823    3.1565 H   0  0  0  0  0  0  0  0  0  0  0  0
   -6.8966   -2.7252    1.3073 H   0  0  0  0  0  0  0  0  0  0  0  0
   -5.4737   -2.0456   -0.9168 H   0  0  0  0  0  0  0  0  0  0  0  0
   -3.3542    0.1384   -1.2349 H   0  0  0  0  0  0  0  0  0  0  0  0
   -0.2168    0.3457    0.4072 H   0  0  0  0  0  0  0  0  0  0  0  0
    0.9317   -0.7624    2.6384 H   0  0  0  0  0  0  0  0  0  0  0  0
    2.5550   -2.5705    2.9219 H   0  0  0  0  0  0  0  0  0  0  0  0
    9.1772   -2.7286   -2.8729 H   0  0  0  0  0  0  0  0  0  0  0  0
    9.6599   -3.6695   -1.4782 H   0  0  0  0  0  0  0  0  0  0  0  0
   11.5629   -2.3966   -2.3946 H   0  0  0  0  0  0  0  0  0  0  0  0
   11.1932   -1.7921   -0.7755 H   0  0  0  0  0  0  0  0  0  0  0  0
  1  2  1  0
  2  3  1  0
  3  4  1  0
  4  5  2  0
  4  6  1  0
  6  7  1  0
  7  8  1  0
  8  9  1  0
  9 10  1  0
 10 11  2  0
 11 12  1  0
 12 13  2  0
 13 14  1  0
 14 15  2  0
 15 16  1  0
 16 17  1  0
 17 18  1  0
 18 19  1  0
 19 20  1  0
 20 21  1  0
 21 22  2  0
 22 23  1  0
 23 24  2  0
 24 25  1  0
 25 26  2  0
 26 27  1  0
 27 28  2  0
 28 29  1  0
 29 30  2  0
 29 31  1  0
 31 32  1  0
 32 33  2  0
 32 34  2  0
 32 35  1  0
 35 36  2  0
 36 37  1  0
 37 38  2  0
 38 39  1  0
 39 40  1  0
 40 41  1  0
 41 42  1  0
 42 43  1  0
 43 44  1  0
 44 45  1  0
 44 46  1  1
 44 47  1  0
 47 48  1  0
 38 49  1  0
 49 50  1  0
 50 51  2  0
 50 52  1  0
 49 53  2  0
 28 54  1  0
 54 55  1  0
 55 56  1  0
 56 57  2  0
 57 58  1  0
 58 59  2  0
 59 60  1  0
 60 61  1  0
 61 62  2  0
 62 63  1  0
 63 64  2  0
 54 65  2  0
 24 66  1  0
 66 67  2  0
  9 68  1  0
 68 69  1  0
 69  6  1  0
 15 10  1  0
 20 16  1  0
 67 21  1  0
 65 25  1  0
 53 35  1  0
 64 56  1  0
 53 37  1  0
 63 59  1  0
 48 41  1  0
  1 70  1  0
  1 71  1  0
  1 72  1  0
  2 73  1  0
  3 74  1  0
  3 75  1  0
  7 76  1  0
  7 77  1  0
  8 78  1  0
  8 79  1  0
  9 80  1  0
 11 81  1  0
 12 82  1  0
 13 83  1  0
 14 84  1  0
 16 85  1  6
 17 86  1  0
 17 87  1  0
 18 88  1  0
 18 89  1  0
 19 90  1  0
 19 91  1  0
 22 92  1  0
 23 93  1  0
 26 94  1  0
 27 95  1  0
 31 96  1  0
 36 97  1  0
 39 98  1  0
 40 99  1  0
 40100  1  0
 41101  1  1
 42102  1  0
 42103  1  0
 43104  1  0
 43105  1  0
 45106  1  0
 45107  1  0
 45108  1  0
 46109  1  0
 47110  1  0
 47111  1  0
 48112  1  0
 48113  1  0
 57114  1  0
 60115  1  0
 61116  1  0
 62117  1  0
 64118  1  0
 65119  1  0
 66120  1  0
 67121  1  0
 68122  1  0
 68123  1  0
 69124  1  0
 69125  1  0
M  CHG  2  50   1  52  -1
M  END
$$$$

     RDKit          3D

125134  0  0  0  0  0  0  0  0999 V2000
   11.4630    3.8513   -4.1379 C   0  0  0  0  0  0  0  0  0  0  0  0
   10.2979    4.3666   -3.4297 N   0  0  0  0  0  0  0  0  0  0  0  0
    9.4998    3.2857   -2.8211 C   0  0  0  0  0  0  0  0  0  0  0  0
   10.2019    2.5879   -1.6356 C   0  0  0  0  0  0  0  0  0  0  0  0
   11.1765    3.0739   -1.0576 O   0  0  0  0  0  0  0  0  0  0  0  0
    9.6701    1.3580   -1.2379 N   0  0  0  0  0  0  0  0  0  0  0  0
    8.4319    0.7808   -1.7632 C   0  0  0  0  0  0  0  0  0  0  0  0
    7.6978   -0.0604   -0.7249 C   0  0  0  0  0  0  0  0  0  0  0  0
    8.5799   -1.1591   -0.0978 C   0  0  0  0  0  0  0  0  0  0  0  0
    8.1721   -2.5539   -0.5662 C   0  0  0  0  0  0  0  0  0  0  0  0
    8.4787   -2.9257   -1.8956 C   0  0  0  0  0  0  0  0  0  0  0  0
    8.1586   -4.1835   -2.4039 C   0  0  0  0  0  0  0  0  0  0  0  0
    7.5155   -5.1063   -1.5968 C   0  0  0  0  0  0  0  0  0  0  0  0
    7.1801   -4.7594   -0.2900 C   0  0  0  0  0  0  0  0  0  0  0  0
    7.4757   -3.4826    0.2489 C   0  0  0  0  0  0  0  0  0  0  0  0
    7.0187   -3.2587    1.6871 C   0  0  1  0  0  0  0  0  0  0  0  0
    8.1889   -3.3504    2.6776 C   0  0  0  0  0  0  0  0  0  0  0  0
    7.6445   -2.6274    3.8950 C   0  0  0  0  0  0  0  0  0  0  0  0
    6.8469   -1.4699    3.2986 C   0  0  0  0  0  0  0  0  0  0  0  0
    6.4000   -1.9536    1.9829 N   0  0  0  0  0  0  0  0  0  0  0  0
    5.2041   -1.5024    1.4544 C   0  0  0  0  0  0  0  0  0  0  0  0
    4.4227   -2.2638    0.5777 C   0  0  0  0  0  0  0  0  0  0  0  0
    3.2280   -1.7758    0.0249 C   0  0  0  0  0  0  0  0  0  0  0  0
    2.7621   -0.4912    0.3234 C   0  0  0  0  0  0  0  0  0  0  0  0
    1.5136    0.0249   -0.2588 C   0  0  0  0  0  0  0  0  0  0  0  0
    1.2945   -0.0074   -1.6457 C   0  0  0  0  0  0  0  0  0  0  0  0
    0.1126    0.4921   -2.2039 C   0  0  0  0  0  0  0  0  0  0  0  0
   -0.8846    1.0363   -1.3846 C   0  0  0  0  0  0  0  0  0  0  0  0
   -2.0940    1.5784   -2.0540 C   0  0  0  0  0  0  0  0  0  0  0  0
   -2.5062    1.0781   -3.0883 O   0  0  0  0  0  0  0  0  0  0  0  0
   -2.6992    2.6683   -1.4256 N   0  0  0  0  0  0  0  0  0  0  0  0
   -4.1403    3.3321   -1.8768 S   0  0  0  0  0  0  0  0  0  0  0  0
   -4.1373    3.7805   -3.2451 O   0  0  0  0  0  0  0  0  0  0  0  0
   -4.6425    4.1082   -0.7705 O   0  0  0  0  0  0  0  0  0  0  0  0
   -5.3996    2.0804   -1.9553 C   0  0  0  0  0  0  0  0  0  0  0  0
   -5.7050    1.0458   -2.7766 C   0  0  0  0  0  0  0  0  0  0  0  0
   -6.8233    0.5726   -2.0039 C   0  0  0  0  0  0  0  0  0  0  0  0
   -7.8109    0.3607   -1.0950 C   0  0  0  0  0  0  0  0  0  0  0  0
   -8.7784   -0.5246   -0.9273 N   0  0  0  0  0  0  0  0  0  0  0  0
  -10.1773   -0.1617   -1.2292 C   0  0  0  0  0  0  0  0  0  0  0  0
  -10.9126    0.4412   -0.0273 C   0  0  1  0  0  0  0  0  0  0  0  0
  -12.3331    0.8803   -0.4358 C   0  0  0  0  0  0  0  0  0  0  0  0
  -13.3087    1.0093    0.7438 C   0  0  0  0  0  0  0  0  0  0  0  0
  -12.5986    1.2759    2.0749 C   0  0  2  0  0  0  0  0  0  0  0  0
  -13.6068    1.4650    3.2085 C   0  0  0  0  0  0  0  0  0  0  0  0
  -11.8831    2.5079    1.9377 O   0  0  0  0  0  0  0  0  0  0  0  0
  -11.6184    0.1319    2.4027 C   0  0  0  0  0  0  0  0  0  0  0  0
  -10.9831   -0.5183    1.1646 C   0  0  0  0  0  0  0  0  0  0  0  0
   -7.3945    1.4866   -0.2719 C   0  0  0  0  0  0  0  0  0  0  0  0
   -7.7642    2.0771    1.0244 N   0  0  0  0  0  0  0  0  0  0  0  0
   -8.3063    1.3306    1.8512 O   0  0  0  0  0  0  0  0  0  0  0  0
   -7.4974    3.2734    1.1845 O   0  0  0  0  0  0  0  0  0  0  0  0
   -6.4633    1.6737   -1.1780 C   0  0  0  0  0  0  0  0  0  0  0  0
   -0.6931    1.0372    0.0035 C   0  0  0  0  0  0  0  0  0  0  0  0
   -1.6278    1.5179    0.8905 O   0  0  0  0  0  0  0  0  0  0  0  0
   -2.7474    0.7470    1.1288 C   0  0  0  0  0  0  0  0  0  0  0  0
   -3.8177    1.4018    1.7369 C   0  0  0  0  0  0  0  0  0  0  0  0
   -5.0223    0.8573    2.0214 N   0  0  0  0  0  0  0  0  0  0  0  0
   -5.1075   -0.4378    1.6733 C   0  0  0  0  0  0  0  0  0  0  0  0
   -6.2261   -1.2098    1.8349 N   0  0  0  0  0  0  0  0  0  0  0  0
   -5.9794   -2.4776    1.3703 C   0  0  0  0  0  0  0  0  0  0  0  0
   -4.6806   -2.5139    0.9048 C   0  0  0  0  0  0  0  0  0  0  0  0
   -4.1216   -1.2194    1.0836 C   0  0  0  0  0  0  0  0  0  0  0  0
   -2.8850   -0.6076    0.8073 C   0  0  0  0  0  0  0  0  0  0  0  0
    0.5030    0.5601    0.5558 C   0  0  0  0  0  0  0  0  0  0  0  0
    3.5356    0.2851    1.1915 C   0  0  0  0  0  0  0  0  0  0  0  0
    4.7288   -0.2119    1.7373 C   0  0  0  0  0  0  0  0  0  0  0  0
   10.0867   -0.8785   -0.2738 C   0  0  0  0  0  0  0  0  0  0  0  0
   10.3672    0.6164   -0.1889 C   0  0  0  0  0  0  0  0  0  0  0  0
   11.1713    3.1646   -4.9394 H   0  0  0  0  0  0  0  0  0  0  0  0
   12.1623    3.3417   -3.4690 H   0  0  0  0  0  0  0  0  0  0  0  0
   12.0045    4.6856   -4.5951 H   0  0  0  0  0  0  0  0  0  0  0  0
    9.7129    4.8812   -4.0848 H   0  0  0  0  0  0  0  0  0  0  0  0
    9.2341    2.5534   -3.5907 H   0  0  0  0  0  0  0  0  0  0  0  0
    8.5781    3.7296   -2.4286 H   0  0  0  0  0  0  0  0  0  0  0  0
    8.7021    0.1755   -2.6352 H   0  0  0  0  0  0  0  0  0  0  0  0
    7.7644    1.5747   -2.1097 H   0  0  0  0  0  0  0  0  0  0  0  0
    6.7804   -0.4725   -1.1616 H   0  0  0  0  0  0  0  0  0  0  0  0
    7.3749    0.6152    0.0793 H   0  0  0  0  0  0  0  0  0  0  0  0
    8.4247   -1.0914    0.9791 H   0  0  0  0  0  0  0  0  0  0  0  0
    8.9809   -2.2279   -2.5618 H   0  0  0  0  0  0  0  0  0  0  0  0
    8.4169   -4.4387   -3.4280 H   0  0  0  0  0  0  0  0  0  0  0  0
    7.2679   -6.0918   -1.9816 H   0  0  0  0  0  0  0  0  0  0  0  0
    6.6663   -5.5030    0.3180 H   0  0  0  0  0  0  0  0  0  0  0  0
    6.2894   -4.0323    1.9683 H   0  0  0  0  0  0  0  0  0  0  0  0
    9.0871   -2.8404    2.3111 H   0  0  0  0  0  0  0  0  0  0  0  0
    8.4653   -4.3868    2.8969 H   0  0  0  0  0  0  0  0  0  0  0  0
    8.4299   -2.2864    4.5752 H   0  0  0  0  0  0  0  0  0  0  0  0
    6.9753   -3.2924    4.4545 H   0  0  0  0  0  0  0  0  0  0  0  0
    6.0180   -1.2162    3.9696 H   0  0  0  0  0  0  0  0  0  0  0  0
    7.4840   -0.5878    3.1702 H   0  0  0  0  0  0  0  0  0  0  0  0
    4.7179   -3.2704    0.3004 H   0  0  0  0  0  0  0  0  0  0  0  0
    2.6633   -2.4260   -0.6401 H   0  0  0  0  0  0  0  0  0  0  0  0
    2.0590   -0.4097   -2.3098 H   0  0  0  0  0  0  0  0  0  0  0  0
   -0.0175    0.4645   -3.2853 H   0  0  0  0  0  0  0  0  0  0  0  0
   -2.3396    3.0451   -0.5541 H   0  0  0  0  0  0  0  0  0  0  0  0
   -5.2435    0.6827   -3.6938 H   0  0  0  0  0  0  0  0  0  0  0  0
   -8.6051   -1.4171   -1.3963 H   0  0  0  0  0  0  0  0  0  0  0  0
  -10.6983   -1.0734   -1.5493 H   0  0  0  0  0  0  0  0  0  0  0  0
  -10.2082    0.5278   -2.0832 H   0  0  0  0  0  0  0  0  0  0  0  0
  -10.3691    1.3396    0.2796 H   0  0  0  0  0  0  0  0  0  0  0  0
  -12.2622    1.8442   -0.9562 H   0  0  0  0  0  0  0  0  0  0  0  0
  -12.7643    0.1786   -1.1610 H   0  0  0  0  0  0  0  0  0  0  0  0
  -13.8973    0.0860    0.8224 H   0  0  0  0  0  0  0  0  0  0  0  0
  -14.0173    1.8152    0.5148 H   0  0  0  0  0  0  0  0  0  0  0  0
  -14.2269    0.5741    3.3512 H   0  0  0  0  0  0  0  0  0  0  0  0
  -14.2658    2.3171    3.0066 H   0  0  0  0  0  0  0  0  0  0  0  0
  -13.0941    1.6855    4.1519 H   0  0  0  0  0  0  0  0  0  0  0  0
  -11.2926    2.6069    2.7056 H   0  0  0  0  0  0  0  0  0  0  0  0
  -12.1264   -0.6608    2.9663 H   0  0  0  0  0  0  0  0  0  0  0  0
  -10.8166    0.5079    3.0503 H   0  0  0  0  0  0  0  0  0  0  0  0
   -9.9910   -0.8971    1.4353 H   0  0  0  0  0  0  0  0  0  0  0  0
  -11.5764   -1.3982    0.8818 H   0  0  0  0  0  0  0  0  0  0  0  0
   -3.7348    2.4521    2.0119 H   0  0  0  0  0  0  0  0  0  0  0  0
   -7.0982   -0.8616    2.2134 H   0  0  0  0  0  0  0  0  0  0  0  0
   -6.7496   -3.2362    1.4091 H   0  0  0  0  0  0  0  0  0  0  0  0
   -4.1919   -3.3775    0.4731 H   0  0  0  0  0  0  0  0  0  0  0  0
   -2.0896   -1.1898    0.3579 H   0  0  0  0  0  0  0  0  0  0  0  0
    0.6319    0.5812    1.6372 H   0  0  0  0  0  0  0  0  0  0  0  0
    3.2336    1.2998    1.4419 H   0  0  0  0  0  0  0  0  0  0  0  0
    5.3024    0.4540    2.3772 H   0  0  0  0  0  0  0  0  0  0  0  0
   10.6518   -1.4120    0.5005 H   0  0  0  0  0  0  0  0  0  0  0  0
   10.4647   -1.2457   -1.2344 H   0  0  0  0  0  0  0  0  0  0  0  0
   11.4458    0.7938   -0.2649 H   0  0  0  0  0  0  0  0  0  0  0  0
   10.0349    1.0199    0.7751 H   0  0  0  0  0  0  0  0  0  0  0  0
  1  2  1  0
  2  3  1  0
  3  4  1  0
  4  5  2  0
  4  6  1  0
  6  7  1  0
  7  8  1  0
  8  9  1  0
  9 10  1  0
 10 11  2  0
 11 12  1  0
 12 13  2  0
 13 14  1  0
 14 15  2  0
 15 16  1  0
 16 17  1  0
 17 18  1  0
 18 19  1  0
 19 20  1  0
 20 21  1  0
 21 22  2  0
 22 23  1  0
 23 24  2  0
 24 25  1  0
 25 26  2  0
 26 27  1  0
 27 28  2  0
 28 29  1  0
 29 30  2  0
 29 31  1  0
 31 32  1  0
 32 33  2  0
 32 34  2  0
 32 35  1  0
 35 36  2  0
 36 37  1  0
 37 38  2  0
 38 39  1  0
 39 40  1  0
 40 41  1  0
 41 42  1  0
 42 43  1  0
 43 44  1  0
 44 45  1  0
 44 46  1  6
 44 47  1  0
 47 48  1  0
 38 49  1  0
 49 50  1  0
 50 51  2  0
 50 52  1  0
 49 53  2  0
 28 54  1  0
 54 55  1  0
 55 56  1  0
 56 57  2  0
 57 58  1  0
 58 59  2  0
 59 60  1  0
 60 61  1  0
 61 62  2  0
 62 63  1  0
 63 64  2  0
 54 65  2  0
 24 66  1  0
 66 67  2  0
  9 68  1  0
 68 69  1  0
 69  6  1  0
 15 10  1  0
 20 16  1  0
 67 21  1  0
 65 25  1  0
 53 35  1  0
 64 56  1  0
 53 37  1  0
 63 59  1  0
 48 41  1  0
  1 70  1  0
  1 71  1  0
  1 72  1  0
  2 73  1  0
  3 74  1  0
  3 75  1  0
  7 76  1  0
  7 77  1  0
  8 78  1  0
  8 79  1  0
  9 80  1  0
 11 81  1  0
 12 82  1  0
 13 83  1  0
 14 84  1  0
 16 85  1  1
 17 86  1  0
 17 87  1  0
 18 88  1  0
 18 89  1  0
 19 90  1  0
 19 91  1  0
 22 92  1  0
 23 93  1  0
 26 94  1  0
 27 95  1  0
 31 96  1  0
 36 97  1  0
 39 98  1  0
 40 99  1  0
 40100  1  0
 41101  1  1
 42102  1  0
 42103  1  0
 43104  1  0
 43105  1  0
 45106  1  0
 45107  1  0
 45108  1  0
 46109  1  0
 47110  1  0
 47111  1  0
 48112  1  0
 48113  1  0
 57114  1  0
 60115  1  0
 61116  1  0
 62117  1  0
 64118  1  0
 65119  1  0
 66120  1  0
 67121  1  0
 68122  1  0
 68123  1  0
 69124  1  0
 69125  1  0
M  CHG  2  50   1  52  -1
M  END
$$$$

     RDKit          3D

125134  0  0  0  0  0  0  0  0999 V2000
    5.4552    2.5946   -4.2045 C   0  0  0  0  0  0  0  0  0  0  0  0
    5.7748    2.9600   -2.8271 N   0  0  0  0  0  0  0  0  0  0  0  0
    7.1775    3.4131   -2.6987 C   0  0  0  0  0  0  0  0  0  0  0  0
    8.1998    2.3147   -3.0370 C   0  0  0  0  0  0  0  0  0  0  0  0
    8.9329    2.4514   -4.0227 O   0  0  0  0  0  0  0  0  0  0  0  0
    8.2753    1.1971   -2.2089 N   0  0  0  0  0  0  0  0  0  0  0  0
    9.2283    0.1393   -2.5335 C   0  0  0  0  0  0  0  0  0  0  0  0
    8.6669   -1.2493   -2.2373 C   0  0  0  0  0  0  0  0  0  0  0  0
    8.1369   -1.3917   -0.7900 C   0  0  0  0  0  0  0  0  0  0  0  0
    8.9253   -2.4019    0.0436 C   0  0  0  0  0  0  0  0  0  0  0  0
   10.3227   -2.2077    0.1542 C   0  0  0  0  0  0  0  0  0  0  0  0
   11.1292   -3.0807    0.8759 C   0  0  0  0  0  0  0  0  0  0  0  0
   10.5555   -4.1681    1.5096 C   0  0  0  0  0  0  0  0  0  0  0  0
    9.1769   -4.3748    1.4265 C   0  0  0  0  0  0  0  0  0  0  0  0
    8.3220   -3.5060    0.7099 C   0  0  0  0  0  0  0  0  0  0  0  0
    6.8063   -3.7762    0.6363 C   0  0  1  0  0  0  0  0  0  0  0  0
    6.3080   -5.1433    1.1484 C   0  0  0  0  0  0  0  0  0  0  0  0
    6.0974   -4.9243    2.6377 C   0  0  0  0  0  0  0  0  0  0  0  0
    5.5642   -3.5015    2.7065 C   0  0  0  0  0  0  0  0  0  0  0  0
    6.0733   -2.8152    1.4978 N   0  0  0  0  0  0  0  0  0  0  0  0
    5.1015   -1.9498    0.9773 C   0  0  0  0  0  0  0  0  0  0  0  0
    4.7613   -0.8030    1.7145 C   0  0  0  0  0  0  0  0  0  0  0  0
    3.7726    0.0881    1.2807 C   0  0  0  0  0  0  0  0  0  0  0  0
    3.0732   -0.1398    0.0888 C   0  0  0  0  0  0  0  0  0  0  0  0
    1.9732    0.7429   -0.3375 C   0  0  0  0  0  0  0  0  0  0  0  0
    1.8941    1.2415   -1.6451 C   0  0  0  0  0  0  0  0  0  0  0  0
    0.8109    2.0319   -2.0559 C   0  0  0  0  0  0  0  0  0  0  0  0
   -0.2314    2.3497   -1.1703 C   0  0  0  0  0  0  0  0  0  0  0  0
   -1.3609    3.1721   -1.7113 C   0  0  0  0  0  0  0  0  0  0  0  0
   -1.4096    3.4588   -2.8967 O   0  0  0  0  0  0  0  0  0  0  0  0
   -2.3262    3.5734   -0.7852 N   0  0  0  0  0  0  0  0  0  0  0  0
   -3.7420    4.3530   -1.1088 S   0  0  0  0  0  0  0  0  0  0  0  0
   -3.8761    5.4961   -0.2393 O   0  0  0  0  0  0  0  0  0  0  0  0
   -4.1948    4.2755   -2.4704 O   0  0  0  0  0  0  0  0  0  0  0  0
   -5.0381    3.3311   -0.3681 C   0  0  0  0  0  0  0  0  0  0  0  0
   -6.0080    3.5195    0.5358 C   0  0  0  0  0  0  0  0  0  0  0  0
   -6.4390    2.1910    0.4862 C   0  0  0  0  0  0  0  0  0  0  0  0
   -6.7750    0.9075    0.3610 C   0  0  0  0  0  0  0  0  0  0  0  0
   -7.6066    0.0233    0.8589 N   0  0  0  0  0  0  0  0  0  0  0  0
   -8.6833    0.3486    1.7845 C   0  0  0  0  0  0  0  0  0  0  0  0
   -9.9709    0.7348    1.0373 C   0  0  1  0  0  0  0  0  0  0  0  0
  -10.5624   -0.4291    0.2334 C   0  0  0  0  0  0  0  0  0  0  0  0
  -11.7911   -0.0090   -0.5880 C   0  0  0  0  0  0  0  0  0  0  0  0
  -12.5913    1.1551    0.0280 C   0  0  2  0  0  0  0  0  0  0  0  0
  -14.0578    1.0953   -0.4035 C   0  0  0  0  0  0  0  0  0  0  0  0
  -12.0602    2.3990   -0.4428 O   0  0  0  0  0  0  0  0  0  0  0  0
  -12.4674    1.1532    1.5546 C   0  0  0  0  0  0  0  0  0  0  0  0
  -11.0138    1.2782    2.0343 C   0  0  0  0  0  0  0  0  0  0  0  0
   -5.7989    0.7276   -0.6582 C   0  0  0  0  0  0  0  0  0  0  0  0
   -5.4013   -0.4334   -1.4846 N   0  0  0  0  0  0  0  0  0  0  0  0
   -4.4201   -0.2807   -2.2230 O   0  0  0  0  0  0  0  0  0  0  0  0
   -6.0845   -1.4606   -1.3739 O   0  0  0  0  0  0  0  0  0  0  0  0
   -5.3817    1.9839   -0.5657 C   0  0  0  0  0  0  0  0  0  0  0  0
   -0.1563    1.8530    0.1399 C   0  0  0  0  0  0  0  0  0  0  0  0
   -1.1072    2.1665    1.0837 O   0  0  0  0  0  0  0  0  0  0  0  0
   -1.9796    1.1783    1.4910 C   0  0  0  0  0  0  0  0  0  0  0  0
   -2.7663    1.4890    2.6003 C   0  0  0  0  0  0  0  0  0  0  0  0
   -3.7342    0.7101    3.1369 N   0  0  0  0  0  0  0  0  0  0  0  0
   -3.8770   -0.4571    2.4844 C   0  0  0  0  0  0  0  0  0  0  0  0
   -4.7933   -1.4188    2.8095 N   0  0  0  0  0  0  0  0  0  0  0  0
   -4.6783   -2.4788    1.9469 C   0  0  0  0  0  0  0  0  0  0  0  0
   -3.6684   -2.1893    1.0527 C   0  0  0  0  0  0  0  0  0  0  0  0
   -3.1600   -0.9034    1.3800 C   0  0  0  0  0  0  0  0  0  0  0  0
   -2.1765   -0.0488    0.8516 C   0  0  0  0  0  0  0  0  0  0  0  0
    0.9409    1.0796    0.5534 C   0  0  0  0  0  0  0  0  0  0  0  0
    3.4162   -1.2777   -0.6555 C   0  0  0  0  0  0  0  0  0  0  0  0
    4.4085   -2.1668   -0.2174 C   0  0  0  0  0  0  0  0  0  0  0  0
    8.0500   -0.0348   -0.0695 C   0  0  0  0  0  0  0  0  0  0  0  0
    7.4700    1.0270   -0.9979 C   0  0  0  0  0  0  0  0  0  0  0  0
    6.0632    1.7526   -4.5504 H   0  0  0  0  0  0  0  0  0  0  0  0
    5.5842    3.4408   -4.8876 H   0  0  0  0  0  0  0  0  0  0  0  0
    4.4089    2.2753   -4.2582 H   0  0  0  0  0  0  0  0  0  0  0  0
    5.1665    3.7283   -2.5450 H   0  0  0  0  0  0  0  0  0  0  0  0
    7.3548    4.2709   -3.3593 H   0  0  0  0  0  0  0  0  0  0  0  0
    7.3624    3.7668   -1.6786 H   0  0  0  0  0  0  0  0  0  0  0  0
   10.1319    0.3284   -1.9426 H   0  0  0  0  0  0  0  0  0  0  0  0
    9.5205    0.1945   -3.5879 H   0  0  0  0  0  0  0  0  0  0  0  0
    9.4157   -2.0113   -2.4790 H   0  0  0  0  0  0  0  0  0  0  0  0
    7.8275   -1.4238   -2.9260 H   0  0  0  0  0  0  0  0  0  0  0  0
    7.1169   -1.7555   -0.9138 H   0  0  0  0  0  0  0  0  0  0  0  0
   10.7991   -1.3601   -0.3336 H   0  0  0  0  0  0  0  0  0  0  0  0
   12.1996   -2.9100    0.9386 H   0  0  0  0  0  0  0  0  0  0  0  0
   11.1762   -4.8602    2.0731 H   0  0  0  0  0  0  0  0  0  0  0  0
    8.7939   -5.2474    1.9439 H   0  0  0  0  0  0  0  0  0  0  0  0
    6.5416   -3.7280   -0.4245 H   0  0  0  0  0  0  0  0  0  0  0  0
    6.9683   -5.9844    0.9216 H   0  0  0  0  0  0  0  0  0  0  0  0
    5.3354   -5.3668    0.6879 H   0  0  0  0  0  0  0  0  0  0  0  0
    7.0330   -5.0001    3.1981 H   0  0  0  0  0  0  0  0  0  0  0  0
    5.3973   -5.6473    3.0685 H   0  0  0  0  0  0  0  0  0  0  0  0
    5.9071   -2.9944    3.6148 H   0  0  0  0  0  0  0  0  0  0  0  0
    4.4662   -3.5393    2.7301 H   0  0  0  0  0  0  0  0  0  0  0  0
    5.2880   -0.5907    2.6428 H   0  0  0  0  0  0  0  0  0  0  0  0
    3.5594    0.9640    1.8892 H   0  0  0  0  0  0  0  0  0  0  0  0
    2.6842    1.0202   -2.3632 H   0  0  0  0  0  0  0  0  0  0  0  0
    0.7886    2.3921   -3.0844 H   0  0  0  0  0  0  0  0  0  0  0  0
   -2.1163    3.5290    0.2068 H   0  0  0  0  0  0  0  0  0  0  0  0
   -6.3174    4.3868    1.1137 H   0  0  0  0  0  0  0  0  0  0  0  0
   -7.6669   -0.9174    0.4624 H   0  0  0  0  0  0  0  0  0  0  0  0
   -8.3741    1.1628    2.4515 H   0  0  0  0  0  0  0  0  0  0  0  0
   -8.8657   -0.5248    2.4227 H   0  0  0  0  0  0  0  0  0  0  0  0
   -9.7239    1.5379    0.3294 H   0  0  0  0  0  0  0  0  0  0  0  0
   -9.8199   -0.8590   -0.4480 H   0  0  0  0  0  0  0  0  0  0  0  0
  -10.8484   -1.2341    0.9229 H   0  0  0  0  0  0  0  0  0  0  0  0
  -11.4544    0.2700   -1.5955 H   0  0  0  0  0  0  0  0  0  0  0  0
  -12.4297   -0.8946   -0.7065 H   0  0  0  0  0  0  0  0  0  0  0  0
  -14.1456    1.1289   -1.4952 H   0  0  0  0  0  0  0  0  0  0  0  0
  -14.5510    0.1852   -0.0439 H   0  0  0  0  0  0  0  0  0  0  0  0
  -14.6128    1.9589   -0.0226 H   0  0  0  0  0  0  0  0  0  0  0  0
  -12.1242    2.4121   -1.4159 H   0  0  0  0  0  0  0  0  0  0  0  0
  -13.0391    1.9861    1.9863 H   0  0  0  0  0  0  0  0  0  0  0  0
  -12.9038    0.2283    1.9588 H   0  0  0  0  0  0  0  0  0  0  0  0
  -10.7846    2.3349    2.2279 H   0  0  0  0  0  0  0  0  0  0  0  0
  -10.9272    0.7710    3.0037 H   0  0  0  0  0  0  0  0  0  0  0  0
   -2.6345    2.4411    3.1123 H   0  0  0  0  0  0  0  0  0  0  0  0
   -5.4567   -1.3266    3.5651 H   0  0  0  0  0  0  0  0  0  0  0  0
   -5.3231   -3.3426    2.0424 H   0  0  0  0  0  0  0  0  0  0  0  0
   -3.3427   -2.8293    0.2426 H   0  0  0  0  0  0  0  0  0  0  0  0
   -1.6241   -0.3521   -0.0311 H   0  0  0  0  0  0  0  0  0  0  0  0
    0.9720    0.7125    1.5777 H   0  0  0  0  0  0  0  0  0  0  0  0
    2.8848   -1.5095   -1.5767 H   0  0  0  0  0  0  0  0  0  0  0  0
    4.5879   -3.0503   -0.8198 H   0  0  0  0  0  0  0  0  0  0  0  0
    7.4365   -0.1202    0.8336 H   0  0  0  0  0  0  0  0  0  0  0  0
    9.0410    0.2939    0.2740 H   0  0  0  0  0  0  0  0  0  0  0  0
    7.4041    1.9780   -0.4631 H   0  0  0  0  0  0  0  0  0  0  0  0
    6.4575    0.7457   -1.3132 H   0  0  0  0  0  0  0  0  0  0  0  0
  1  2  1  0
  2  3  1  0
  3  4  1  0
  4  5  2  0
  4  6  1  0
  6  7  1  0
  7  8  1  0
  8  9  1  0
  9 10  1  0
 10 11  2  0
 11 12  1  0
 12 13  2  0
 13 14  1  0
 14 15  2  0
 15 16  1  0
 16 17  1  0
 17 18  1  0
 18 19  1  0
 19 20  1  0
 20 21  1  0
 21 22  2  0
 22 23  1  0
 23 24  2  0
 24 25  1  0
 25 26  2  0
 26 27  1  0
 27 28  2  0
 28 29  1  0
 29 30  2  0
 29 31  1  0
 31 32  1  0
 32 33  2  0
 32 34  2  0
 32 35  1  0
 35 36  2  0
 36 37  1  0
 37 38  2  0
 38 39  1  0
 39 40  1  0
 40 41  1  0
 41 42  1  0
 42 43  1  0
 43 44  1  0
 44 45  1  0
 44 46  1  6
 44 47  1  0
 47 48  1  0
 38 49  1  0
 49 50  1  0
 50 51  2  0
 50 52  1  0
 49 53  2  0
 28 54  1  0
 54 55  1  0
 55 56  1  0
 56 57  2  0
 57 58  1  0
 58 59  2  0
 59 60  1  0
 60 61  1  0
 61 62  2  0
 62 63  1  0
 63 64  2  0
 54 65  2  0
 24 66  1  0
 66 67  2  0
  9 68  1  0
 68 69  1  0
 69  6  1  0
 15 10  1  0
 20 16  1  0
 67 21  1  0
 65 25  1  0
 53 35  1  0
 64 56  1  0
 53 37  1  0
 63 59  1  0
 48 41  1  0
  1 70  1  0
  1 71  1  0
  1 72  1  0
  2 73  1  0
  3 74  1  0
  3 75  1  0
  7 76  1  0
  7 77  1  0
  8 78  1  0
  8 79  1  0
  9 80  1  0
 11 81  1  0
 12 82  1  0
 13 83  1  0
 14 84  1  0
 16 85  1  6
 17 86  1  0
 17 87  1  0
 18 88  1  0
 18 89  1  0
 19 90  1  0
 19 91  1  0
 22 92  1  0
 23 93  1  0
 26 94  1  0
 27 95  1  0
 31 96  1  0
 36 97  1  0
 39 98  1  0
 40 99  1  0
 40100  1  0
 41101  1  6
 42102  1  0
 42103  1  0
 43104  1  0
 43105  1  0
 45106  1  0
 45107  1  0
 45108  1  0
 46109  1  0
 47110  1  0
 47111  1  0
 48112  1  0
 48113  1  0
 57114  1  0
 60115  1  0
 61116  1  0
 62117  1  0
 64118  1  0
 65119  1  0
 66120  1  0
 67121  1  0
 68122  1  0
 68123  1  0
 69124  1  0
 69125  1  0
M  CHG  2  50   1  52  -1
M  END
$$$$
