
     RDKit          3D

129137  0  0  0  0  0  0  0  0999 V2000
  -13.0896   -1.7389    0.3891 C   0  0  0  0  0  0  0  0  0  0  0  0
  -12.3079   -0.8877    1.2925 N   0  0  0  0  0  0  0  0  0  0  0  0
  -13.2035    0.0038    2.0317 C   0  0  0  0  0  0  0  0  0  0  0  0
  -11.5279   -1.7115    2.2478 C   0  0  0  0  0  0  0  0  0  0  0  0
  -10.4667   -2.5728    1.5445 C   0  0  0  0  0  0  0  0  0  0  0  0
  -10.5428   -3.8041    1.6057 O   0  0  0  0  0  0  0  0  0  0  0  0
   -9.4331   -1.9352    0.8662 N   0  0  0  0  0  0  0  0  0  0  0  0
   -8.4799   -2.7440    0.1232 C   0  0  0  0  0  0  0  0  0  0  0  0
   -7.9465   -1.9804   -1.0845 C   0  0  0  0  0  0  0  0  0  0  0  0
   -7.1461   -0.6909   -0.6905 C   0  0  0  0  0  0  0  0  0  0  0  0
   -5.4959   -1.3216   -0.2231 Cl  0  0  0  0  0  0  0  0  0  0  0  0
   -6.9029    0.2833   -1.8913 C   0  0  0  0  0  0  0  0  0  0  0  0
   -7.0459   -0.2888   -3.1945 C   0  0  0  0  0  0  0  0  0  0  0  0
   -6.8959    0.4234   -4.3862 C   0  0  0  0  0  0  0  0  0  0  0  0
   -6.5737    1.7586   -4.3401 C   0  0  0  0  0  0  0  0  0  0  0  0
   -6.3749    2.3534   -3.1012 C   0  0  0  0  0  0  0  0  0  0  0  0
   -6.4977    1.6549   -1.8553 C   0  0  0  0  0  0  0  0  0  0  0  0
   -6.1554    2.5881   -0.6866 C   0  0  1  0  0  0  0  0  0  0  0  0
   -7.3607    3.4479   -0.2667 C   0  0  0  0  0  0  0  0  0  0  0  0
   -6.9353    3.9674    1.0915 C   0  0  0  0  0  0  0  0  0  0  0  0
   -6.1653    2.8034    1.7096 C   0  0  0  0  0  0  0  0  0  0  0  0
   -5.6330    2.0260    0.5681 N   0  0  0  0  0  0  0  0  0  0  0  0
   -4.3040    1.6041    0.6855 C   0  0  0  0  0  0  0  0  0  0  0  0
   -3.8171    1.1151    1.9102 C   0  0  0  0  0  0  0  0  0  0  0  0
   -2.5014    0.6542    2.0624 C   0  0  0  0  0  0  0  0  0  0  0  0
   -1.6120    0.6438    0.9830 C   0  0  0  0  0  0  0  0  0  0  0  0
   -0.2345    0.1495    1.1332 C   0  0  0  0  0  0  0  0  0  0  0  0
    0.2855   -0.8230    0.2692 C   0  0  0  0  0  0  0  0  0  0  0  0
    1.5991   -1.2856    0.4091 C   0  0  0  0  0  0  0  0  0  0  0  0
    2.4363   -0.7977    1.4265 C   0  0  0  0  0  0  0  0  0  0  0  0
    3.8249   -1.3514    1.4730 C   0  0  0  0  0  0  0  0  0  0  0  0
    4.1767   -2.2137    0.6828 O   0  0  0  0  0  0  0  0  0  0  0  0
    4.6890   -0.8188    2.4317 N   0  0  0  0  0  0  0  0  0  0  0  0
    6.2475   -1.3140    2.7074 S   0  0  0  0  0  0  0  0  0  0  0  0
    6.2764   -2.7443    2.9093 O   0  0  0  0  0  0  0  0  0  0  0  0
    6.7676   -0.4128    3.7154 O   0  0  0  0  0  0  0  0  0  0  0  0
    7.0758   -0.9285    1.1864 C   0  0  0  0  0  0  0  0  0  0  0  0
    7.6026    0.3497    0.9948 C   0  0  0  0  0  0  0  0  0  0  0  0
    8.2850    0.6396   -0.1860 C   0  0  0  0  0  0  0  0  0  0  0  0
    8.4423   -0.3356   -1.1865 C   0  0  0  0  0  0  0  0  0  0  0  0
    9.2000    0.0200   -2.3429 N   0  0  0  0  0  0  0  0  0  0  0  0
   10.6458   -0.0487   -2.0894 C   0  0  0  0  0  0  0  0  0  0  0  0
   11.4297    0.4031   -3.3371 C   0  0  1  0  0  0  0  0  0  0  0  0
   12.9111    0.6031   -2.9746 C   0  0  0  0  0  0  0  0  0  0  0  0
   13.7480    1.0039   -4.1871 C   0  0  0  0  0  0  0  0  0  0  0  0
   13.6136    0.0263   -5.3619 C   0  0  2  0  0  0  0  0  0  0  0  0
   14.3321   -1.2978   -5.0814 C   0  0  0  0  0  0  0  0  0  0  0  0
   14.2570    0.6277   -6.4902 O   0  0  0  0  0  0  0  0  0  0  0  0
   12.1332   -0.1874   -5.7067 C   0  0  0  0  0  0  0  0  0  0  0  0
   11.2865   -0.5935   -4.5012 C   0  0  0  0  0  0  0  0  0  0  0  0
    7.9192   -1.6431   -0.9738 C   0  0  0  0  0  0  0  0  0  0  0  0
    8.0887   -2.6831   -1.8721 N   0  0  0  0  0  3  0  0  0  0  0  0
    7.8019   -2.3743   -3.0354 O   0  0  0  0  0  0  0  0  0  0  0  0
    7.2490   -1.9268    0.2225 C   0  0  0  0  0  0  0  0  0  0  0  0
    1.9135    0.1540    2.3138 C   0  0  0  0  0  0  0  0  0  0  0  0
    2.6979    0.6843    3.3173 O   0  0  0  0  0  0  0  0  0  0  0  0
    2.1994    0.6136    4.5997 C   0  0  0  0  0  0  0  0  0  0  0  0
    2.3532    1.7326    5.4139 C   0  0  0  0  0  0  0  0  0  0  0  0
    1.9457    1.8369    6.7013 N   0  0  0  0  0  0  0  0  0  0  0  0
    1.3714    0.7074    7.1551 C   0  0  0  0  0  0  0  0  0  0  0  0
    0.8791    0.5439    8.4209 N   0  0  0  0  0  0  0  0  0  0  0  0
    0.3675   -0.7215    8.5606 C   0  0  0  0  0  0  0  0  0  0  0  0
    0.5393   -1.3816    7.3614 C   0  0  0  0  0  0  0  0  0  0  0  0
    1.1736   -0.4825    6.4615 C   0  0  0  0  0  0  0  0  0  0  0  0
    1.6133   -0.5398    5.1285 C   0  0  0  0  0  0  0  0  0  0  0  0
    0.6018    0.6361    2.1491 C   0  0  0  0  0  0  0  0  0  0  0  0
   -2.0910    1.1039   -0.2484 C   0  0  0  0  0  0  0  0  0  0  0  0
   -3.4093    1.5649   -0.3923 C   0  0  0  0  0  0  0  0  0  0  0  0
   -7.8326   -0.0798    0.5555 C   0  0  0  0  0  0  0  0  0  0  0  0
   -9.2914   -0.4917    0.7406 C   0  0  0  0  0  0  0  0  0  0  0  0
  -13.7784   -2.3967    0.9315 H   0  0  0  0  0  0  0  0  0  0  0  0
  -12.4368   -2.3580   -0.2352 H   0  0  0  0  0  0  0  0  0  0  0  0
  -13.6769   -1.1231   -0.3018 H   0  0  0  0  0  0  0  0  0  0  0  0
  -13.9202   -0.5472    2.6516 H   0  0  0  0  0  0  0  0  0  0  0  0
  -13.7641    0.6443    1.3417 H   0  0  0  0  0  0  0  0  0  0  0  0
  -12.6280    0.6734    2.6806 H   0  0  0  0  0  0  0  0  0  0  0  0
  -12.1883   -2.3789    2.8170 H   0  0  0  0  0  0  0  0  0  0  0  0
  -11.0102   -1.0826    2.9818 H   0  0  0  0  0  0  0  0  0  0  0  0
   -8.9603   -3.6693   -0.2139 H   0  0  0  0  0  0  0  0  0  0  0  0
   -7.6760   -3.0268    0.8117 H   0  0  0  0  0  0  0  0  0  0  0  0
   -7.3312   -2.6704   -1.6765 H   0  0  0  0  0  0  0  0  0  0  0  0
   -8.8088   -1.7086   -1.7099 H   0  0  0  0  0  0  0  0  0  0  0  0
   -7.2729   -1.3436   -3.3287 H   0  0  0  0  0  0  0  0  0  0  0  0
   -7.0289   -0.0781   -5.3411 H   0  0  0  0  0  0  0  0  0  0  0  0
   -6.4560    2.3324   -5.2545 H   0  0  0  0  0  0  0  0  0  0  0  0
   -6.0963    3.4087   -3.1062 H   0  0  0  0  0  0  0  0  0  0  0  0
   -5.3970    3.3061   -1.0361 H   0  0  0  0  0  0  0  0  0  0  0  0
   -8.2881    2.8720   -0.1885 H   0  0  0  0  0  0  0  0  0  0  0  0
   -7.5518    4.2640   -0.9721 H   0  0  0  0  0  0  0  0  0  0  0  0
   -6.2674    4.8285    0.9658 H   0  0  0  0  0  0  0  0  0  0  0  0
   -7.7801    4.2846    1.7096 H   0  0  0  0  0  0  0  0  0  0  0  0
   -5.3924    3.2057    2.3752 H   0  0  0  0  0  0  0  0  0  0  0  0
   -6.8334    2.1687    2.3017 H   0  0  0  0  0  0  0  0  0  0  0  0
   -4.4764    1.0497    2.7720 H   0  0  0  0  0  0  0  0  0  0  0  0
   -2.1939    0.2737    3.0341 H   0  0  0  0  0  0  0  0  0  0  0  0
   -0.3361   -1.2391   -0.5233 H   0  0  0  0  0  0  0  0  0  0  0  0
    1.9613   -2.0386   -0.2910 H   0  0  0  0  0  0  0  0  0  0  0  0
    4.4054   -0.0548    3.0374 H   0  0  0  0  0  0  0  0  0  0  0  0
    7.4957    1.1199    1.7558 H   0  0  0  0  0  0  0  0  0  0  0  0
    8.6943    1.6361   -0.3396 H   0  0  0  0  0  0  0  0  0  0  0  0
    8.9455   -0.6360   -3.0879 H   0  0  0  0  0  0  0  0  0  0  0  0
   10.9045    0.6120   -1.2524 H   0  0  0  0  0  0  0  0  0  0  0  0
   10.9376   -1.0695   -1.8112 H   0  0  0  0  0  0  0  0  0  0  0  0
   11.0281    1.3713   -3.6680 H   0  0  0  0  0  0  0  0  0  0  0  0
   13.0013    1.3839   -2.2094 H   0  0  0  0  0  0  0  0  0  0  0  0
   13.3162   -0.3143   -2.5307 H   0  0  0  0  0  0  0  0  0  0  0  0
   13.4447    2.0077   -4.5154 H   0  0  0  0  0  0  0  0  0  0  0  0
   14.8014    1.1035   -3.8956 H   0  0  0  0  0  0  0  0  0  0  0  0
   15.3996   -1.1262   -4.9008 H   0  0  0  0  0  0  0  0  0  0  0  0
   14.2717   -1.9625   -5.9509 H   0  0  0  0  0  0  0  0  0  0  0  0
   13.9206   -1.8291   -4.2191 H   0  0  0  0  0  0  0  0  0  0  0  0
   14.1398    0.0356   -7.2529 H   0  0  0  0  0  0  0  0  0  0  0  0
   11.7256    0.7382   -6.1357 H   0  0  0  0  0  0  0  0  0  0  0  0
   12.0337   -0.9396   -6.4994 H   0  0  0  0  0  0  0  0  0  0  0  0
   10.2406   -0.6536   -4.8225 H   0  0  0  0  0  0  0  0  0  0  0  0
   11.5690   -1.6002   -4.1710 H   0  0  0  0  0  0  0  0  0  0  0  0
    6.8488   -2.9253    0.3961 H   0  0  0  0  0  0  0  0  0  0  0  0
    2.8308    2.6290    5.0248 H   0  0  0  0  0  0  0  0  0  0  0  0
    0.9065    1.2633    9.1285 H   0  0  0  0  0  0  0  0  0  0  0  0
   -0.0682   -1.0418    9.4976 H   0  0  0  0  0  0  0  0  0  0  0  0
    0.2409   -2.4017    7.1558 H   0  0  0  0  0  0  0  0  0  0  0  0
    1.5000   -1.4501    4.5513 H   0  0  0  0  0  0  0  0  0  0  0  0
    0.2275    1.4110    2.8171 H   0  0  0  0  0  0  0  0  0  0  0  0
   -1.4445    1.1077   -1.1234 H   0  0  0  0  0  0  0  0  0  0  0  0
   -3.7115    1.8779   -1.3864 H   0  0  0  0  0  0  0  0  0  0  0  0
   -7.2914   -0.3559    1.4701 H   0  0  0  0  0  0  0  0  0  0  0  0
   -7.8518    0.9981    0.5171 H   0  0  0  0  0  0  0  0  0  0  0  0
   -9.6876    0.0069    1.6291 H   0  0  0  0  0  0  0  0  0  0  0  0
   -9.8928   -0.1674   -0.1171 H   0  0  0  0  0  0  0  0  0  0  0  0
  1  2  1  0
  2  3  1  0
  2  4  1  0
  4  5  1  0
  5  6  2  0
  5  7  1  0
  7  8  1  0
  8  9  1  0
  9 10  1  0
 10 11  1  0
 10 12  1  0
 12 13  2  0
 13 14  1  0
 14 15  2  0
 15 16  1  0
 16 17  2  0
 17 18  1  0
 18 19  1  0
 19 20  1  0
 20 21  1  0
 21 22  1  0
 22 23  1  0
 23 24  2  0
 24 25  1  0
 25 26  2  0
 26 27  1  0
 27 28  2  0
 28 29  1  0
 29 30  2  0
 30 31  1  0
 31 32  2  0
 31 33  1  0
 33 34  1  0
 34 35  2  0
 34 36  2  0
 34 37  1  0
 37 38  2  0
 38 39  1  0
 39 40  2  0
 40 41  1  0
 41 42  1  0
 42 43  1  0
 43 44  1  0
 44 45  1  0
 45 46  1  0
 46 47  1  0
 46 48  1  6
 46 49  1  0
 49 50  1  0
 40 51  1  0
 51 52  1  0
 52 53  2  0
 51 54  2  0
 30 55  1  0
 55 56  1  0
 56 57  1  0
 57 58  2  0
 58 59  1  0
 59 60  2  0
 60 61  1  0
 61 62  1  0
 62 63  2  0
 63 64  1  0
 64 65  2  0
 55 66  2  0
 26 67  1  0
 67 68  2  0
 10 69  1  0
 69 70  1  0
 70  7  1  0
 17 12  1  0
 22 18  1  0
 68 23  1  0
 66 27  1  0
 54 37  1  0
 65 57  1  0
 50 43  1  0
 64 60  1  0
  1 71  1  0
  1 72  1  0
  1 73  1  0
  3 74  1  0
  3 75  1  0
  3 76  1  0
  4 77  1  0
  4 78  1  0
  8 79  1  0
  8 80  1  0
  9 81  1  0
  9 82  1  0
 13 83  1  0
 14 84  1  0
 15 85  1  0
 16 86  1  0
 18 87  1  6
 19 88  1  0
 19 89  1  0
 20 90  1  0
 20 91  1  0
 21 92  1  0
 21 93  1  0
 24 94  1  0
 25 95  1  0
 28 96  1  0
 29 97  1  0
 33 98  1  0
 38 99  1  0
 39100  1  0
 41101  1  0
 42102  1  0
 42103  1  0
 43104  1  6
 44105  1  0
 44106  1  0
 45107  1  0
 45108  1  0
 47109  1  0
 47110  1  0
 47111  1  0
 48112  1  0
 49113  1  0
 49114  1  0
 50115  1  0
 50116  1  0
 54117  1  0
 58118  1  0
 61119  1  0
 62120  1  0
 63121  1  0
 65122  1  0
 66123  1  0
 67124  1  0
 68125  1  0
 69126  1  0
 69127  1  0
 70128  1  0
 70129  1  0
M  CHG  1  52   1
M  RAD  1  52   2
M  END
$$$$

     RDKit          3D

129137  0  0  0  0  0  0  0  0999 V2000
  -11.6081    5.2653    1.3831 C   0  0  0  0  0  0  0  0  0  0  0  0
  -11.8861    4.3853    0.2426 N   0  0  0  0  0  0  0  0  0  0  0  0
  -12.5730    5.1395   -0.8078 C   0  0  0  0  0  0  0  0  0  0  0  0
  -12.7226    3.2330    0.6541 C   0  0  0  0  0  0  0  0  0  0  0  0
  -11.9964    2.3233    1.6579 C   0  0  0  0  0  0  0  0  0  0  0  0
  -12.3471    2.3235    2.8427 O   0  0  0  0  0  0  0  0  0  0  0  0
  -10.9712    1.4911    1.1898 N   0  0  0  0  0  0  0  0  0  0  0  0
  -10.1838    0.8044    2.1995 C   0  0  0  0  0  0  0  0  0  0  0  0
   -9.5153   -0.4634    1.6757 C   0  0  0  0  0  0  0  0  0  0  0  0
   -8.7033   -0.2685    0.3783 C   0  0  0  0  0  0  0  0  0  0  0  0
   -7.2999    0.8444    0.6707 Cl  0  0  0  0  0  0  0  0  0  0  0  0
   -8.1259   -1.6146   -0.1745 C   0  0  0  0  0  0  0  0  0  0  0  0
   -8.4438   -1.9801   -1.5120 C   0  0  0  0  0  0  0  0  0  0  0  0
   -7.9808   -3.1509   -2.1173 C   0  0  0  0  0  0  0  0  0  0  0  0
   -7.1668   -4.0115   -1.4120 C   0  0  0  0  0  0  0  0  0  0  0  0
   -6.8199   -3.6948   -0.1046 C   0  0  0  0  0  0  0  0  0  0  0  0
   -7.2711   -2.5144    0.5458 C   0  0  0  0  0  0  0  0  0  0  0  0
   -6.8092   -2.3159    1.9974 C   0  0  1  0  0  0  0  0  0  0  0  0
   -7.7511   -3.0475    2.9841 C   0  0  0  0  0  0  0  0  0  0  0  0
   -7.0414   -4.3476    3.3119 C   0  0  0  0  0  0  0  0  0  0  0  0
   -5.5821   -3.9260    3.3436 C   0  0  0  0  0  0  0  0  0  0  0  0
   -5.4769   -2.9114    2.2923 N   0  0  0  0  0  0  0  0  0  0  0  0
   -4.2846   -2.2464    2.0541 C   0  0  0  0  0  0  0  0  0  0  0  0
   -4.1764   -1.2351    1.0916 C   0  0  0  0  0  0  0  0  0  0  0  0
   -2.9705   -0.5638    0.8347 C   0  0  0  0  0  0  0  0  0  0  0  0
   -1.8014   -0.8868    1.5287 C   0  0  0  0  0  0  0  0  0  0  0  0
   -0.5347   -0.1879    1.2635 C   0  0  0  0  0  0  0  0  0  0  0  0
    0.2075    0.3869    2.3066 C   0  0  0  0  0  0  0  0  0  0  0  0
    1.4085    1.0607    2.0550 C   0  0  0  0  0  0  0  0  0  0  0  0
    1.9054    1.1756    0.7488 C   0  0  0  0  0  0  0  0  0  0  0  0
    3.1746    1.9346    0.5713 C   0  0  0  0  0  0  0  0  0  0  0  0
    3.9577    2.0542    1.5005 O   0  0  0  0  0  0  0  0  0  0  0  0
    3.3963    2.4765   -0.6963 N   0  0  0  0  0  0  0  0  0  0  0  0
    4.7388    3.3246   -1.1723 S   0  0  0  0  0  0  0  0  0  0  0  0
    4.9958    4.3969   -0.2389 O   0  0  0  0  0  0  0  0  0  0  0  0
    4.5299    3.6015   -2.5791 O   0  0  0  0  0  0  0  0  0  0  0  0
    6.0463    2.1318   -1.0570 C   0  0  0  0  0  0  0  0  0  0  0  0
    6.7722    2.0158    0.1258 C   0  0  0  0  0  0  0  0  0  0  0  0
    7.8209    1.0955    0.2118 C   0  0  0  0  0  0  0  0  0  0  0  0
    8.2028    0.3105   -0.8904 C   0  0  0  0  0  0  0  0  0  0  0  0
    9.2112   -0.6681   -0.7777 N   0  0  0  0  0  0  0  0  0  0  0  0
   10.3034   -0.5498    0.1854 C   0  0  0  0  0  0  0  0  0  0  0  0
   11.2771    0.5978   -0.1515 C   0  0  1  0  0  0  0  0  0  0  0  0
   12.1923    0.8613    1.0623 C   0  0  0  0  0  0  0  0  0  0  0  0
   13.4618    1.5989    0.6531 C   0  0  0  0  0  0  0  0  0  0  0  0
   14.3237    0.7637   -0.3137 C   0  0  2  0  0  0  0  0  0  0  0  0
   15.4286    0.0127    0.4349 C   0  0  0  0  0  0  0  0  0  0  0  0
   14.9605    1.6882   -1.2022 O   0  0  0  0  0  0  0  0  0  0  0  0
   13.4794   -0.2252   -1.1427 C   0  0  0  0  0  0  0  0  0  0  0  0
   12.0890    0.3350   -1.4394 C   0  0  0  0  0  0  0  0  0  0  0  0
    7.4483    0.4489   -2.0966 C   0  0  0  0  0  0  0  0  0  0  0  0
    7.7130   -0.3008   -3.2315 N   0  0  0  0  0  3  0  0  0  0  0  0
    8.8763   -0.1691   -3.6325 O   0  0  0  0  0  0  0  0  0  0  0  0
    6.3811    1.3574   -2.1681 C   0  0  0  0  0  0  0  0  0  0  0  0
    1.1857    0.5761   -0.2937 C   0  0  0  0  0  0  0  0  0  0  0  0
    1.5979    0.6214   -1.6043 O   0  0  0  0  0  0  0  0  0  0  0  0
    2.5198   -0.3150   -2.0255 C   0  0  0  0  0  0  0  0  0  0  0  0
    2.9850   -0.1572   -3.3314 C   0  0  0  0  0  0  0  0  0  0  0  0
    3.9242   -0.9174   -3.9422 N   0  0  0  0  0  0  0  0  0  0  0  0
    4.3880   -1.9009   -3.1507 C   0  0  0  0  0  0  0  0  0  0  0  0
    5.3490   -2.8028   -3.5168 N   0  0  0  0  0  0  0  0  0  0  0  0
    5.5949   -3.6653   -2.4786 C   0  0  0  0  0  0  0  0  0  0  0  0
    4.7752   -3.3072   -1.4284 C   0  0  0  0  0  0  0  0  0  0  0  0
    4.0078   -2.1857   -1.8441 C   0  0  0  0  0  0  0  0  0  0  0  0
    3.0299   -1.3644   -1.2557 C   0  0  0  0  0  0  0  0  0  0  0  0
   -0.0292   -0.0771   -0.0410 C   0  0  0  0  0  0  0  0  0  0  0  0
   -1.8844   -1.9099    2.4778 C   0  0  0  0  0  0  0  0  0  0  0  0
   -3.0964   -2.5755    2.7247 C   0  0  0  0  0  0  0  0  0  0  0  0
   -9.6399    0.4700   -0.6213 C   0  0  0  0  0  0  0  0  0  0  0  0
  -10.2859    1.7384   -0.0714 C   0  0  0  0  0  0  0  0  0  0  0  0
  -11.0132    4.7502    2.1445 H   0  0  0  0  0  0  0  0  0  0  0  0
  -12.5258    5.6395    1.8512 H   0  0  0  0  0  0  0  0  0  0  0  0
  -11.0110    6.1270    1.0631 H   0  0  0  0  0  0  0  0  0  0  0  0
  -13.5364    5.5388   -0.4704 H   0  0  0  0  0  0  0  0  0  0  0  0
  -11.9527    5.9757   -1.1495 H   0  0  0  0  0  0  0  0  0  0  0  0
  -12.7496    4.5042   -1.6831 H   0  0  0  0  0  0  0  0  0  0  0  0
  -13.6602    3.5708    1.1149 H   0  0  0  0  0  0  0  0  0  0  0  0
  -13.0061    2.6194   -0.2095 H   0  0  0  0  0  0  0  0  0  0  0  0
   -9.4393    1.5151    2.5784 H   0  0  0  0  0  0  0  0  0  0  0  0
  -10.8190    0.5337    3.0509 H   0  0  0  0  0  0  0  0  0  0  0  0
   -8.9004   -0.8370    2.4918 H   0  0  0  0  0  0  0  0  0  0  0  0
  -10.2916   -1.2202    1.4973 H   0  0  0  0  0  0  0  0  0  0  0  0
   -9.0679   -1.3567   -2.1462 H   0  0  0  0  0  0  0  0  0  0  0  0
   -8.2548   -3.3785   -3.1442 H   0  0  0  0  0  0  0  0  0  0  0  0
   -6.7909   -4.9206   -1.8723 H   0  0  0  0  0  0  0  0  0  0  0  0
   -6.1580   -4.3851    0.4169 H   0  0  0  0  0  0  0  0  0  0  0  0
   -6.7795   -1.2573    2.2600 H   0  0  0  0  0  0  0  0  0  0  0  0
   -7.8408   -2.4554    3.9042 H   0  0  0  0  0  0  0  0  0  0  0  0
   -8.7604   -3.2201    2.5973 H   0  0  0  0  0  0  0  0  0  0  0  0
   -7.3705   -4.7806    4.2608 H   0  0  0  0  0  0  0  0  0  0  0  0
   -7.2139   -5.0887    2.5236 H   0  0  0  0  0  0  0  0  0  0  0  0
   -5.3412   -3.4936    4.3225 H   0  0  0  0  0  0  0  0  0  0  0  0
   -4.9315   -4.7865    3.1547 H   0  0  0  0  0  0  0  0  0  0  0  0
   -5.0331   -0.9511    0.4902 H   0  0  0  0  0  0  0  0  0  0  0  0
   -2.9684    0.2215    0.0817 H   0  0  0  0  0  0  0  0  0  0  0  0
   -0.1578    0.3315    3.3316 H   0  0  0  0  0  0  0  0  0  0  0  0
    1.9471    1.5074    2.8903 H   0  0  0  0  0  0  0  0  0  0  0  0
    2.7186    2.3645   -1.4439 H   0  0  0  0  0  0  0  0  0  0  0  0
    6.5169    2.6210    0.9951 H   0  0  0  0  0  0  0  0  0  0  0  0
    8.3294    1.0065    1.1672 H   0  0  0  0  0  0  0  0  0  0  0  0
    9.5289   -0.9702   -1.7002 H   0  0  0  0  0  0  0  0  0  0  0  0
    9.9073   -0.4465    1.2018 H   0  0  0  0  0  0  0  0  0  0  0  0
   10.8519   -1.5000    0.1825 H   0  0  0  0  0  0  0  0  0  0  0  0
   10.6942    1.5113   -0.3275 H   0  0  0  0  0  0  0  0  0  0  0  0
   12.4650   -0.0814    1.5539 H   0  0  0  0  0  0  0  0  0  0  0  0
   11.6438    1.4515    1.8064 H   0  0  0  0  0  0  0  0  0  0  0  0
   14.0378    1.8662    1.5475 H   0  0  0  0  0  0  0  0  0  0  0  0
   13.1844    2.5543    0.1876 H   0  0  0  0  0  0  0  0  0  0  0  0
   16.0525   -0.5587   -0.2620 H   0  0  0  0  0  0  0  0  0  0  0  0
   16.0992    0.7126    0.9466 H   0  0  0  0  0  0  0  0  0  0  0  0
   15.0163   -0.6791    1.1765 H   0  0  0  0  0  0  0  0  0  0  0  0
   15.5261    1.1839   -1.8118 H   0  0  0  0  0  0  0  0  0  0  0  0
   13.9808   -0.4512   -2.0917 H   0  0  0  0  0  0  0  0  0  0  0  0
   13.3625   -1.1759   -0.6070 H   0  0  0  0  0  0  0  0  0  0  0  0
   12.2015    1.2808   -1.9857 H   0  0  0  0  0  0  0  0  0  0  0  0
   11.5595   -0.3417   -2.1177 H   0  0  0  0  0  0  0  0  0  0  0  0
    5.8221    1.4555   -3.0970 H   0  0  0  0  0  0  0  0  0  0  0  0
    2.5973    0.6469   -3.9545 H   0  0  0  0  0  0  0  0  0  0  0  0
    5.8090   -2.7969   -4.4157 H   0  0  0  0  0  0  0  0  0  0  0  0
    6.3345   -4.4488   -2.5749 H   0  0  0  0  0  0  0  0  0  0  0  0
    4.7415   -3.7952   -0.4630 H   0  0  0  0  0  0  0  0  0  0  0  0
    2.7122   -1.5626   -0.2395 H   0  0  0  0  0  0  0  0  0  0  0  0
   -0.5727   -0.5244   -0.8723 H   0  0  0  0  0  0  0  0  0  0  0  0
   -1.0010   -2.2181    3.0328 H   0  0  0  0  0  0  0  0  0  0  0  0
   -3.0792   -3.3658    3.4694 H   0  0  0  0  0  0  0  0  0  0  0  0
   -9.1018    0.7383   -1.5400 H   0  0  0  0  0  0  0  0  0  0  0  0
  -10.4591   -0.2039   -0.9100 H   0  0  0  0  0  0  0  0  0  0  0  0
  -10.9860    2.1071   -0.8247 H   0  0  0  0  0  0  0  0  0  0  0  0
   -9.5472    2.5301    0.0961 H   0  0  0  0  0  0  0  0  0  0  0  0
  1  2  1  0
  2  3  1  0
  2  4  1  0
  4  5  1  0
  5  6  2  0
  5  7  1  0
  7  8  1  0
  8  9  1  0
  9 10  1  0
 10 11  1  0
 10 12  1  0
 12 13  2  0
 13 14  1  0
 14 15  2  0
 15 16  1  0
 16 17  2  0
 17 18  1  0
 18 19  1  0
 19 20  1  0
 20 21  1  0
 21 22  1  0
 22 23  1  0
 23 24  2  0
 24 25  1  0
 25 26  2  0
 26 27  1  0
 27 28  2  0
 28 29  1  0
 29 30  2  0
 30 31  1  0
 31 32  2  0
 31 33  1  0
 33 34  1  0
 34 35  2  0
 34 36  2  0
 34 37  1  0
 37 38  2  0
 38 39  1  0
 39 40  2  0
 40 41  1  0
 41 42  1  0
 42 43  1  0
 43 44  1  0
 44 45  1  0
 45 46  1  0
 46 47  1  0
 46 48  1  6
 46 49  1  0
 49 50  1  0
 40 51  1  0
 51 52  1  0
 52 53  2  0
 51 54  2  0
 30 55  1  0
 55 56  1  0
 56 57  1  0
 57 58  2  0
 58 59  1  0
 59 60  2  0
 60 61  1  0
 61 62  1  0
 62 63  2  0
 63 64  1  0
 64 65  2  0
 55 66  2  0
 26 67  1  0
 67 68  2  0
 10 69  1  0
 69 70  1  0
 70  7  1  0
 17 12  1  0
 22 18  1  0
 68 23  1  0
 66 27  1  0
 54 37  1  0
 65 57  1  0
 50 43  1  0
 64 60  1  0
  1 71  1  0
  1 72  1  0
  1 73  1  0
  3 74  1  0
  3 75  1  0
  3 76  1  0
  4 77  1  0
  4 78  1  0
  8 79  1  0
  8 80  1  0
  9 81  1  0
  9 82  1  0
 13 83  1  0
 14 84  1  0
 15 85  1  0
 16 86  1  0
 18 87  1  1
 19 88  1  0
 19 89  1  0
 20 90  1  0
 20 91  1  0
 21 92  1  0
 21 93  1  0
 24 94  1  0
 25 95  1  0
 28 96  1  0
 29 97  1  0
 33 98  1  0
 38 99  1  0
 39100  1  0
 41101  1  0
 42102  1  0
 42103  1  0
 43104  1  6
 44105  1  0
 44106  1  0
 45107  1  0
 45108  1  0
 47109  1  0
 47110  1  0
 47111  1  0
 48112  1  0
 49113  1  0
 49114  1  0
 50115  1  0
 50116  1  0
 54117  1  0
 58118  1  0
 61119  1  0
 62120  1  0
 63121  1  0
 65122  1  0
 66123  1  0
 67124  1  0
 68125  1  0
 69126  1  0
 69127  1  0
 70128  1  0
 70129  1  0
M  CHG  1  52   1
M  RAD  1  52   2
M  END
$$$$

     RDKit          3D

129137  0  0  0  0  0  0  0  0999 V2000
  -15.1503    1.5007    0.9839 C   0  0  0  0  0  0  0  0  0  0  0  0
  -13.7674    1.8009    1.3628 N   0  0  0  0  0  0  0  0  0  0  0  0
  -13.7275    2.2731    2.7515 C   0  0  0  0  0  0  0  0  0  0  0  0
  -13.2127    2.8254    0.4444 C   0  0  0  0  0  0  0  0  0  0  0  0
  -11.7157    3.0611    0.6927 C   0  0  0  0  0  0  0  0  0  0  0  0
  -11.3375    4.1229    1.2016 O   0  0  0  0  0  0  0  0  0  0  0  0
  -10.8088    2.0684    0.3212 N   0  0  0  0  0  0  0  0  0  0  0  0
   -9.4196    2.2699    0.7066 C   0  0  0  0  0  0  0  0  0  0  0  0
   -8.5039    1.1159    0.2872 C   0  0  0  0  0  0  0  0  0  0  0  0
   -8.7816    0.6202   -1.1436 C   0  0  0  0  0  0  0  0  0  0  0  0
   -8.4484    2.1019   -2.2136 Cl  0  0  0  0  0  0  0  0  0  0  0  0
   -7.9328   -0.5372   -1.7555 C   0  0  0  0  0  0  0  0  0  0  0  0
   -8.1545   -0.7711   -3.1515 C   0  0  0  0  0  0  0  0  0  0  0  0
   -7.4947   -1.7577   -3.8826 C   0  0  0  0  0  0  0  0  0  0  0  0
   -6.5814   -2.5695   -3.2448 C   0  0  0  0  0  0  0  0  0  0  0  0
   -6.3529   -2.3973   -1.8822 C   0  0  0  0  0  0  0  0  0  0  0  0
   -7.0114   -1.4064   -1.1007 C   0  0  0  0  0  0  0  0  0  0  0  0
   -6.7231   -1.4148    0.4046 C   0  0  1  0  0  0  0  0  0  0  0  0
   -7.8111   -2.1907    1.1757 C   0  0  0  0  0  0  0  0  0  0  0  0
   -7.2403   -3.5909    1.3210 C   0  0  0  0  0  0  0  0  0  0  0  0
   -5.7589   -3.3269    1.5549 C   0  0  0  0  0  0  0  0  0  0  0  0
   -5.4730   -2.1187    0.7780 N   0  0  0  0  0  0  0  0  0  0  0  0
   -4.2287   -1.5131    0.7954 C   0  0  0  0  0  0  0  0  0  0  0  0
   -4.0023   -0.2447    0.2467 C   0  0  0  0  0  0  0  0  0  0  0  0
   -2.7403    0.3726    0.2759 C   0  0  0  0  0  0  0  0  0  0  0  0
   -1.6272   -0.2641    0.8363 C   0  0  0  0  0  0  0  0  0  0  0  0
   -0.3011    0.3862    0.8805 C   0  0  0  0  0  0  0  0  0  0  0  0
    0.1817    1.1479   -0.1975 C   0  0  0  0  0  0  0  0  0  0  0  0
    1.4297    1.7842   -0.1436 C   0  0  0  0  0  0  0  0  0  0  0  0
    2.2482    1.6680    0.9892 C   0  0  0  0  0  0  0  0  0  0  0  0
    3.5423    2.4120    0.9737 C   0  0  0  0  0  0  0  0  0  0  0  0
    4.0058    2.8338   -0.0736 O   0  0  0  0  0  0  0  0  0  0  0  0
    4.1762    2.5800    2.2083 N   0  0  0  0  0  0  0  0  0  0  0  0
    5.6809    3.2381    2.4417 S   0  0  0  0  0  0  0  0  0  0  0  0
    5.6558    4.6265    2.0405 O   0  0  0  0  0  0  0  0  0  0  0  0
    6.0626    2.8586    3.7877 O   0  0  0  0  0  0  0  0  0  0  0  0
    6.7156    2.3211    1.3340 C   0  0  0  0  0  0  0  0  0  0  0  0
    7.0020    0.9866    1.6031 C   0  0  0  0  0  0  0  0  0  0  0  0
    7.8014    0.2662    0.7131 C   0  0  0  0  0  0  0  0  0  0  0  0
    8.3727    0.8595   -0.4384 C   0  0  0  0  0  0  0  0  0  0  0  0
    9.0985   -0.0205   -1.2682 N   0  0  0  0  0  0  0  0  0  0  0  0
   10.0751    0.4805   -2.2364 C   0  0  0  0  0  0  0  0  0  0  0  0
   10.9355   -0.6798   -2.7856 C   0  0  1  0  0  0  0  0  0  0  0  0
   11.6189   -0.2388   -4.0979 C   0  0  0  0  0  0  0  0  0  0  0  0
   12.8454   -1.0929   -4.4009 C   0  0  0  0  0  0  0  0  0  0  0  0
   13.9345   -0.9216   -3.3231 C   0  0  2  0  0  0  0  0  0  0  0  0
   14.9665    0.1322   -3.7407 C   0  0  0  0  0  0  0  0  0  0  0  0
   14.6147   -2.1783   -3.2172 O   0  0  0  0  0  0  0  0  0  0  0  0
   13.3405   -0.5652   -1.9429 C   0  0  0  0  0  0  0  0  0  0  0  0
   11.9602   -1.1935   -1.7476 C   0  0  0  0  0  0  0  0  0  0  0  0
    8.0551    2.2246   -0.6953 C   0  0  0  0  0  0  0  0  0  0  0  0
    8.4783    2.8978   -1.8251 N   0  0  0  0  0  3  0  0  0  0  0  0
    9.4234    3.6607   -1.5812 O   0  0  0  0  0  0  0  0  0  0  0  0
    7.2372    2.9404    0.1991 C   0  0  0  0  0  0  0  0  0  0  0  0
    1.7976    0.8687    2.0483 C   0  0  0  0  0  0  0  0  0  0  0  0
    2.5440    0.6684    3.1862 O   0  0  0  0  0  0  0  0  0  0  0  0
    3.3818   -0.4285    3.2251 C   0  0  0  0  0  0  0  0  0  0  0  0
    3.4713   -1.4383    2.2661 C   0  0  0  0  0  0  0  0  0  0  0  0
    4.3236   -2.4938    2.3031 N   0  0  0  0  0  0  0  0  0  0  0  0
    5.1110   -2.4936    3.3939 C   0  0  0  0  0  0  0  0  0  0  0  0
    6.0570   -3.4423    3.6687 N   0  0  0  0  0  0  0  0  0  0  0  0
    6.7001   -3.1296    4.8403 C   0  0  0  0  0  0  0  0  0  0  0  0
    6.1426   -1.9670    5.3315 C   0  0  0  0  0  0  0  0  0  0  0  0
    5.1307   -1.5576    4.4210 C   0  0  0  0  0  0  0  0  0  0  0  0
    4.2266   -0.4865    4.3379 C   0  0  0  0  0  0  0  0  0  0  0  0
    0.5295    0.2678    2.0071 C   0  0  0  0  0  0  0  0  0  0  0  0
   -1.8338   -1.5473    1.3561 C   0  0  0  0  0  0  0  0  0  0  0  0
   -3.1027   -2.1503    1.3347 C   0  0  0  0  0  0  0  0  0  0  0  0
  -10.2885    0.2461   -1.2754 C   0  0  0  0  0  0  0  0  0  0  0  0
  -11.1774    0.7355   -0.1301 C   0  0  0  0  0  0  0  0  0  0  0  0
  -15.1880    1.1092   -0.0388 H   0  0  0  0  0  0  0  0  0  0  0  0
  -15.5665    0.7225    1.6335 H   0  0  0  0  0  0  0  0  0  0  0  0
  -15.7980    2.3834    1.0413 H   0  0  0  0  0  0  0  0  0  0  0  0
  -12.6966    2.4244    3.0909 H   0  0  0  0  0  0  0  0  0  0  0  0
  -14.2778    3.2110    2.8852 H   0  0  0  0  0  0  0  0  0  0  0  0
  -14.1598    1.5230    3.4237 H   0  0  0  0  0  0  0  0  0  0  0  0
  -13.7346    3.7845    0.5584 H   0  0  0  0  0  0  0  0  0  0  0  0
  -13.3338    2.5308   -0.6070 H   0  0  0  0  0  0  0  0  0  0  0  0
   -9.3802    2.3879    1.7959 H   0  0  0  0  0  0  0  0  0  0  0  0
   -9.0806    3.2223    0.2790 H   0  0  0  0  0  0  0  0  0  0  0  0
   -8.6834    0.3022    0.9953 H   0  0  0  0  0  0  0  0  0  0  0  0
   -7.4657    1.4470    0.4083 H   0  0  0  0  0  0  0  0  0  0  0  0
   -8.8689   -0.1590   -3.7056 H   0  0  0  0  0  0  0  0  0  0  0  0
   -7.6916   -1.8762   -4.9458 H   0  0  0  0  0  0  0  0  0  0  0  0
   -6.0475   -3.3404   -3.7955 H   0  0  0  0  0  0  0  0  0  0  0  0
   -5.6325   -3.0719   -1.4186 H   0  0  0  0  0  0  0  0  0  0  0  0
   -6.6573   -0.4040    0.7950 H   0  0  0  0  0  0  0  0  0  0  0  0
   -7.9305   -1.7498    2.1746 H   0  0  0  0  0  0  0  0  0  0  0  0
   -8.7927   -2.1921    0.6914 H   0  0  0  0  0  0  0  0  0  0  0  0
   -7.6977   -4.1483    2.1459 H   0  0  0  0  0  0  0  0  0  0  0  0
   -7.3878   -4.1636    0.3965 H   0  0  0  0  0  0  0  0  0  0  0  0
   -5.5735   -3.1468    2.6208 H   0  0  0  0  0  0  0  0  0  0  0  0
   -5.1647   -4.1833    1.2200 H   0  0  0  0  0  0  0  0  0  0  0  0
   -4.8093    0.3117   -0.2239 H   0  0  0  0  0  0  0  0  0  0  0  0
   -2.6541    1.3760   -0.1382 H   0  0  0  0  0  0  0  0  0  0  0  0
   -0.4140    1.2588   -1.1029 H   0  0  0  0  0  0  0  0  0  0  0  0
    1.7516    2.3797   -0.9983 H   0  0  0  0  0  0  0  0  0  0  0  0
    3.8005    2.1646    3.0540 H   0  0  0  0  0  0  0  0  0  0  0  0
    6.6042    0.4942    2.4859 H   0  0  0  0  0  0  0  0  0  0  0  0
    7.9798   -0.7874    0.9266 H   0  0  0  0  0  0  0  0  0  0  0  0
    9.4356   -0.8309   -0.7546 H   0  0  0  0  0  0  0  0  0  0  0  0
   10.7320    1.2312   -1.7786 H   0  0  0  0  0  0  0  0  0  0  0  0
    9.5407    0.9338   -3.0782 H   0  0  0  0  0  0  0  0  0  0  0  0
   10.2637   -1.5197   -3.0212 H   0  0  0  0  0  0  0  0  0  0  0  0
   11.9163    0.8179   -4.0408 H   0  0  0  0  0  0  0  0  0  0  0  0
   10.9023   -0.3150   -4.9243 H   0  0  0  0  0  0  0  0  0  0  0  0
   12.5393   -2.1471   -4.4716 H   0  0  0  0  0  0  0  0  0  0  0  0
   13.2415   -0.8380   -5.3936 H   0  0  0  0  0  0  0  0  0  0  0  0
   15.7397    0.2449   -2.9732 H   0  0  0  0  0  0  0  0  0  0  0  0
   14.5035    1.1097   -3.9083 H   0  0  0  0  0  0  0  0  0  0  0  0
   15.4838   -0.1711   -4.6596 H   0  0  0  0  0  0  0  0  0  0  0  0
   15.3888   -2.0494   -2.6446 H   0  0  0  0  0  0  0  0  0  0  0  0
   14.0044   -0.9115   -1.1422 H   0  0  0  0  0  0  0  0  0  0  0  0
   13.2452    0.5241   -1.8351 H   0  0  0  0  0  0  0  0  0  0  0  0
   12.0518   -2.2838   -1.8506 H   0  0  0  0  0  0  0  0  0  0  0  0
   11.6174   -1.0131   -0.7229 H   0  0  0  0  0  0  0  0  0  0  0  0
    6.9906    3.9807   -0.0152 H   0  0  0  0  0  0  0  0  0  0  0  0
    2.8334   -1.4482    1.3858 H   0  0  0  0  0  0  0  0  0  0  0  0
    6.2394   -4.2400    3.0762 H   0  0  0  0  0  0  0  0  0  0  0  0
    7.4882   -3.7630    5.2222 H   0  0  0  0  0  0  0  0  0  0  0  0
    6.4340   -1.4644    6.2460 H   0  0  0  0  0  0  0  0  0  0  0  0
    4.2013    0.2767    5.1094 H   0  0  0  0  0  0  0  0  0  0  0  0
    0.1936   -0.3001    2.8748 H   0  0  0  0  0  0  0  0  0  0  0  0
   -1.0074   -2.1129    1.7774 H   0  0  0  0  0  0  0  0  0  0  0  0
   -3.1793   -3.1479    1.7569 H   0  0  0  0  0  0  0  0  0  0  0  0
  -10.6950    0.6253   -2.2238 H   0  0  0  0  0  0  0  0  0  0  0  0
  -10.4146   -0.8442   -1.3192 H   0  0  0  0  0  0  0  0  0  0  0  0
  -11.0875    0.0675    0.7368 H   0  0  0  0  0  0  0  0  0  0  0  0
  -12.2168    0.6822   -0.4596 H   0  0  0  0  0  0  0  0  0  0  0  0
  1  2  1  0
  2  3  1  0
  2  4  1  0
  4  5  1  0
  5  6  2  0
  5  7  1  0
  7  8  1  0
  8  9  1  0
  9 10  1  0
 10 11  1  0
 10 12  1  0
 12 13  2  0
 13 14  1  0
 14 15  2  0
 15 16  1  0
 16 17  2  0
 17 18  1  0
 18 19  1  0
 19 20  1  0
 20 21  1  0
 21 22  1  0
 22 23  1  0
 23 24  2  0
 24 25  1  0
 25 26  2  0
 26 27  1  0
 27 28  2  0
 28 29  1  0
 29 30  2  0
 30 31  1  0
 31 32  2  0
 31 33  1  0
 33 34  1  0
 34 35  2  0
 34 36  2  0
 34 37  1  0
 37 38  2  0
 38 39  1  0
 39 40  2  0
 40 41  1  0
 41 42  1  0
 42 43  1  0
 43 44  1  0
 44 45  1  0
 45 46  1  0
 46 47  1  0
 46 48  1  1
 46 49  1  0
 49 50  1  0
 40 51  1  0
 51 52  1  0
 52 53  2  0
 51 54  2  0
 30 55  1  0
 55 56  1  0
 56 57  1  0
 57 58  2  0
 58 59  1  0
 59 60  2  0
 60 61  1  0
 61 62  1  0
 62 63  2  0
 63 64  1  0
 64 65  2  0
 55 66  2  0
 26 67  1  0
 67 68  2  0
 10 69  1  0
 69 70  1  0
 70  7  1  0
 17 12  1  0
 22 18  1  0
 68 23  1  0
 66 27  1  0
 54 37  1  0
 65 57  1  0
 50 43  1  0
 64 60  1  0
  1 71  1  0
  1 72  1  0
  1 73  1  0
  3 74  1  0
  3 75  1  0
  3 76  1  0
  4 77  1  0
  4 78  1  0
  8 79  1  0
  8 80  1  0
  9 81  1  0
  9 82  1  0
 13 83  1  0
 14 84  1  0
 15 85  1  0
 16 86  1  0
 18 87  1  1
 19 88  1  0
 19 89  1  0
 20 90  1  0
 20 91  1  0
 21 92  1  0
 21 93  1  0
 24 94  1  0
 25 95  1  0
 28 96  1  0
 29 97  1  0
 33 98  1  0
 38 99  1  0
 39100  1  0
 41101  1  0
 42102  1  0
 42103  1  0
 43104  1  6
 44105  1  0
 44106  1  0
 45107  1  0
 45108  1  0
 47109  1  0
 47110  1  0
 47111  1  0
 48112  1  0
 49113  1  0
 49114  1  0
 50115  1  0
 50116  1  0
 54117  1  0
 58118  1  0
 61119  1  0
 62120  1  0
 63121  1  0
 65122  1  0
 66123  1  0
 67124  1  0
 68125  1  0
 69126  1  0
 69127  1  0
 70128  1  0
 70129  1  0
M  CHG  1  52   1
M  RAD  1  52   2
M  END
$$$$
