
     RDKit          3D

 86 92  0  0  0  0  0  0  0  0999 V2000
   -7.4263    3.6058    1.5556 C   0  0  0  0  0  0  0  0  0  0  0  0
   -6.9587    2.4467    0.8006 N   0  0  0  0  0  0  0  0  0  0  0  0
   -6.7042    2.8105   -0.6019 C   0  0  0  0  0  0  0  0  0  0  0  0
   -6.4512    1.6254   -1.4910 C   0  0  0  0  0  0  0  0  0  0  0  0
   -6.7253    0.3627   -1.1179 C   0  0  0  0  0  0  0  0  0  0  0  0
   -6.4558   -0.7683   -2.0209 C   0  0  0  0  0  0  0  0  0  0  0  0
   -7.3371   -0.9515   -3.1032 C   0  0  0  0  0  0  0  0  0  0  0  0
   -7.1692   -2.0117   -3.9878 C   0  0  0  0  0  0  0  0  0  0  0  0
   -6.1221   -2.9002   -3.7955 C   0  0  0  0  0  0  0  0  0  0  0  0
   -5.2412   -2.7180   -2.7256 C   0  0  0  0  0  0  0  0  0  0  0  0
   -5.3598   -1.6450   -1.8110 C   0  0  0  0  0  0  0  0  0  0  0  0
   -4.3163   -1.4795   -0.6088 C   0  0  0  0  0  0  0  0  0  0  0  0
   -3.5919   -0.1153   -0.4143 C   0  0  0  0  0  0  0  0  0  0  0  0
   -2.3259   -0.8889    0.0520 C   0  0  0  0  0  0  0  0  0  0  0  0
   -2.2355   -1.0752    1.5795 C   0  0  0  0  0  0  0  0  0  0  0  0
   -1.0072   -1.9170    1.9312 C   0  0  0  0  0  0  0  0  0  0  0  0
    0.1932   -1.3157    1.3539 N   0  0  0  0  0  0  0  0  0  0  0  0
    1.1114   -0.6809    2.1974 C   0  0  0  0  0  0  0  0  0  0  0  0
    0.9764   -0.7286    3.4269 O   0  0  0  0  0  0  0  0  0  0  0  0
    2.2933    0.0755    1.5318 C   0  0  0  0  0  0  0  0  0  0  0  0
    3.3248    0.7668    2.4683 C   0  0  0  0  0  0  0  0  0  0  0  0
    4.4562    0.3244    1.4978 C   0  0  0  0  0  0  0  0  0  0  0  0
    4.8430    1.3873    0.4650 C   0  0  0  0  0  0  0  0  0  0  0  0
    5.8908    0.8256   -0.5002 C   0  0  0  0  0  0  0  0  0  0  0  0
    7.0861    0.3351    0.2105 N   0  0  0  0  0  0  0  0  0  0  0  0
    8.0996   -0.1390   -0.7597 C   0  0  2  0  0  0  0  0  0  0  0  0
    9.4136   -0.7163   -0.1563 C   0  0  0  0  0  0  0  0  0  0  0  0
   10.1694    0.2321    0.6144 O   0  0  0  0  0  0  0  0  0  0  0  0
    9.9180    1.5817    0.2011 C   0  0  0  0  0  0  0  0  0  0  0  0
    9.5920    1.6731   -1.2895 C   0  0  0  0  0  0  0  0  0  0  0  0
    8.4318    0.9228   -1.6749 O   0  0  0  0  0  0  0  0  0  0  0  0
    6.7242   -0.7014    1.1894 C   0  0  0  0  0  0  0  0  0  0  0  0
    5.7070   -0.1856    2.2110 C   0  0  0  0  0  0  0  0  0  0  0  0
    3.4761   -0.7786    0.9985 C   0  0  0  0  0  0  0  0  0  0  0  0
    0.1598   -1.1791   -0.1001 C   0  0  0  0  0  0  0  0  0  0  0  0
   -1.0214   -0.3006   -0.5103 C   0  0  0  0  0  0  0  0  0  0  0  0
   -2.8943   -2.1042   -0.7411 C   0  0  0  0  0  0  0  0  0  0  0  0
   -7.3509    0.0691    0.2207 C   0  0  0  0  0  0  0  0  0  0  0  0
   -7.9195    1.3372    0.8832 C   0  0  0  0  0  0  0  0  0  0  0  0
   -8.3822    3.9882    1.1796 H   0  0  0  0  0  0  0  0  0  0  0  0
   -6.6896    4.4158    1.5128 H   0  0  0  0  0  0  0  0  0  0  0  0
   -7.5508    3.3502    2.6136 H   0  0  0  0  0  0  0  0  0  0  0  0
   -7.5458    3.3744   -1.0250 H   0  0  0  0  0  0  0  0  0  0  0  0
   -5.8207    3.4589   -0.6395 H   0  0  0  0  0  0  0  0  0  0  0  0
   -6.0228    1.8332   -2.4677 H   0  0  0  0  0  0  0  0  0  0  0  0
   -8.1686   -0.2656   -3.2513 H   0  0  0  0  0  0  0  0  0  0  0  0
   -7.8580   -2.1459   -4.8170 H   0  0  0  0  0  0  0  0  0  0  0  0
   -5.9859   -3.7383   -4.4739 H   0  0  0  0  0  0  0  0  0  0  0  0
   -4.4356   -3.4392   -2.6003 H   0  0  0  0  0  0  0  0  0  0  0  0
   -4.7919   -1.8162    0.3254 H   0  0  0  0  0  0  0  0  0  0  0  0
   -4.0351    0.5529    0.3303 H   0  0  0  0  0  0  0  0  0  0  0  0
   -3.4552    0.4493   -1.3453 H   0  0  0  0  0  0  0  0  0  0  0  0
   -2.1534   -0.0924    2.0613 H   0  0  0  0  0  0  0  0  0  0  0  0
   -3.1343   -1.5561    1.9807 H   0  0  0  0  0  0  0  0  0  0  0  0
   -0.9238   -2.0157    3.0177 H   0  0  0  0  0  0  0  0  0  0  0  0
   -1.0974   -2.9282    1.5183 H   0  0  0  0  0  0  0  0  0  0  0  0
    1.9293    0.8022    0.7908 H   0  0  0  0  0  0  0  0  0  0  0  0
    3.1913    1.8466    2.5881 H   0  0  0  0  0  0  0  0  0  0  0  0
    3.3933    0.3210    3.4683 H   0  0  0  0  0  0  0  0  0  0  0  0
    3.9708    1.7261   -0.1060 H   0  0  0  0  0  0  0  0  0  0  0  0
    5.2503    2.2710    0.9733 H   0  0  0  0  0  0  0  0  0  0  0  0
    5.4480    0.0225   -1.1034 H   0  0  0  0  0  0  0  0  0  0  0  0
    6.1597    1.6363   -1.1873 H   0  0  0  0  0  0  0  0  0  0  0  0
    7.6512   -0.9331   -1.3709 H   0  0  0  0  0  0  0  0  0  0  0  0
    9.2347   -1.5974    0.4664 H   0  0  0  0  0  0  0  0  0  0  0  0
   10.0679   -1.0426   -0.9745 H   0  0  0  0  0  0  0  0  0  0  0  0
   10.8118    2.1697    0.4318 H   0  0  0  0  0  0  0  0  0  0  0  0
    9.0994    1.9784    0.8106 H   0  0  0  0  0  0  0  0  0  0  0  0
    9.4270    2.7142   -1.5832 H   0  0  0  0  0  0  0  0  0  0  0  0
   10.4314    1.2896   -1.8805 H   0  0  0  0  0  0  0  0  0  0  0  0
    6.3262   -1.5888    0.6806 H   0  0  0  0  0  0  0  0  0  0  0  0
    7.6046   -1.0139    1.7600 H   0  0  0  0  0  0  0  0  0  0  0  0
    5.4591   -0.9899    2.9142 H   0  0  0  0  0  0  0  0  0  0  0  0
    6.1573    0.6225    2.8022 H   0  0  0  0  0  0  0  0  0  0  0  0
    3.4690   -0.9633   -0.0795 H   0  0  0  0  0  0  0  0  0  0  0  0
    3.5831   -1.7446    1.5077 H   0  0  0  0  0  0  0  0  0  0  0  0
    0.0563   -2.1865   -0.5204 H   0  0  0  0  0  0  0  0  0  0  0  0
    1.0870   -0.7606   -0.4926 H   0  0  0  0  0  0  0  0  0  0  0  0
   -0.8780    0.7150   -0.1200 H   0  0  0  0  0  0  0  0  0  0  0  0
   -1.0611   -0.2244   -1.6032 H   0  0  0  0  0  0  0  0  0  0  0  0
   -2.5228   -2.1686   -1.7714 H   0  0  0  0  0  0  0  0  0  0  0  0
   -2.7764   -3.0867   -0.2746 H   0  0  0  0  0  0  0  0  0  0  0  0
   -6.5995   -0.3741    0.8845 H   0  0  0  0  0  0  0  0  0  0  0  0
   -8.1624   -0.6606    0.1114 H   0  0  0  0  0  0  0  0  0  0  0  0
   -8.8717    1.6116    0.4087 H   0  0  0  0  0  0  0  0  0  0  0  0
   -8.1387    1.1017    1.9320 H   0  0  0  0  0  0  0  0  0  0  0  0
  1  2  1  0
  2  3  1  0
  3  4  1  0
  4  5  2  0
  5  6  1  0
  6  7  2  0
  7  8  1  0
  8  9  2  0
  9 10  1  0
 10 11  2  0
 11 12  1  0
 12 13  1  0
 13 14  1  0
 14 15  1  0
 15 16  1  0
 16 17  1  0
 17 18  1  0
 18 19  2  0
 18 20  1  0
 20 21  1  0
 21 22  1  0
 22 23  1  0
 23 24  1  0
 24 25  1  0
 25 26  1  0
 26 27  1  0
 27 28  1  0
 28 29  1  0
 29 30  1  0
 30 31  1  0
 25 32  1  0
 32 33  1  0
 22 34  1  0
 17 35  1  0
 35 36  1  0
 14 37  1  0
  5 38  1  0
 38 39  1  0
 39  2  1  0
 11  6  1  0
 37 12  1  0
 36 14  1  0
 34 20  1  0
 33 22  1  0
 31 26  1  0
  1 40  1  0
  1 41  1  0
  1 42  1  0
  3 43  1  0
  3 44  1  0
  4 45  1  0
  7 46  1  0
  8 47  1  0
  9 48  1  0
 10 49  1  0
 12 50  1  0
 13 51  1  0
 13 52  1  0
 15 53  1  0
 15 54  1  0
 16 55  1  0
 16 56  1  0
 20 57  1  0
 21 58  1  0
 21 59  1  0
 23 60  1  0
 23 61  1  0
 24 62  1  0
 24 63  1  0
 26 64  1  6
 27 65  1  0
 27 66  1  0
 29 67  1  0
 29 68  1  0
 30 69  1  0
 30 70  1  0
 32 71  1  0
 32 72  1  0
 33 73  1  0
 33 74  1  0
 34 75  1  0
 34 76  1  0
 35 77  1  0
 35 78  1  0
 36 79  1  0
 36 80  1  0
 37 81  1  0
 37 82  1  0
 38 83  1  0
 38 84  1  0
 39 85  1  0
 39 86  1  0
M  END
$$$$

     RDKit          3D

 86 92  0  0  0  0  0  0  0  0999 V2000
   -8.4039   -3.5390   -0.9946 C   0  0  0  0  0  0  0  0  0  0  0  0
   -8.2205   -2.0905   -1.0244 N   0  0  0  0  0  0  0  0  0  0  0  0
   -7.3023   -1.7074   -2.1086 C   0  0  0  0  0  0  0  0  0  0  0  0
   -6.8770   -0.2670   -2.0529 C   0  0  0  0  0  0  0  0  0  0  0  0
   -7.0581    0.5016   -0.9651 C   0  0  0  0  0  0  0  0  0  0  0  0
   -6.6297    1.9078   -0.9529 C   0  0  0  0  0  0  0  0  0  0  0  0
   -7.5424    2.8631   -1.4343 C   0  0  0  0  0  0  0  0  0  0  0  0
   -7.2104    4.2135   -1.4570 C   0  0  0  0  0  0  0  0  0  0  0  0
   -5.9639    4.6175   -1.0011 C   0  0  0  0  0  0  0  0  0  0  0  0
   -5.0537    3.6686   -0.5266 C   0  0  0  0  0  0  0  0  0  0  0  0
   -5.3444    2.2845   -0.4853 C   0  0  0  0  0  0  0  0  0  0  0  0
   -4.2694    1.2345    0.0610 C   0  0  0  0  0  0  0  0  0  0  0  0
   -2.8257    1.2732   -0.5099 C   0  0  0  0  0  0  0  0  0  0  0  0
   -2.2968    0.8912    0.9109 C   0  0  0  0  0  0  0  0  0  0  0  0
   -2.1308   -0.6294    1.1046 C   0  0  0  0  0  0  0  0  0  0  0  0
   -1.1387   -0.9290    2.2234 C   0  0  0  0  0  0  0  0  0  0  0  0
    0.1774   -0.3607    1.9273 N   0  0  0  0  0  0  0  0  0  0  0  0
    1.3185   -1.0305    2.3793 C   0  0  0  0  0  0  0  0  0  0  0  0
    1.2172   -2.0465    3.0788 O   0  0  0  0  0  0  0  0  0  0  0  0
    2.6982   -0.4494    1.9658 C   0  0  0  0  0  0  0  0  0  0  0  0
    3.0938   -0.5060    0.4652 C   0  0  0  0  0  0  0  0  0  0  0  0
    4.5597   -0.8160    0.8963 C   0  0  0  0  0  0  0  0  0  0  0  0
    5.2538   -1.9229    0.0914 C   0  0  0  0  0  0  0  0  0  0  0  0
    6.1695   -1.3043   -0.9645 C   0  0  0  0  0  0  0  0  0  0  0  0
    7.2487   -0.4838   -0.3855 N   0  0  0  0  0  0  0  0  0  0  0  0
    8.5497   -1.1802   -0.4030 C   0  0  2  0  0  0  0  0  0  0  0  0
    9.7376   -0.4248    0.2638 C   0  0  0  0  0  0  0  0  0  0  0  0
   10.0730    0.8186   -0.3745 O   0  0  0  0  0  0  0  0  0  0  0  0
    9.7065    0.8276   -1.7605 C   0  0  0  0  0  0  0  0  0  0  0  0
    9.7762   -0.5671   -2.3806 C   0  0  0  0  0  0  0  0  0  0  0  0
    8.8992   -1.5154   -1.7591 O   0  0  0  0  0  0  0  0  0  0  0  0
    6.9122    0.0660    0.9356 C   0  0  0  0  0  0  0  0  0  0  0  0
    5.4335    0.4449    1.0271 C   0  0  0  0  0  0  0  0  0  0  0  0
    3.9509   -1.3326    2.2330 C   0  0  0  0  0  0  0  0  0  0  0  0
    0.2062    0.8928    1.1726 C   0  0  0  0  0  0  0  0  0  0  0  0
   -1.0741    1.6951    1.3775 C   0  0  0  0  0  0  0  0  0  0  0  0
   -3.6376    1.4734    1.4596 C   0  0  0  0  0  0  0  0  0  0  0  0
   -7.6862   -0.0525    0.2856 C   0  0  0  0  0  0  0  0  0  0  0  0
   -7.7366   -1.5909    0.2708 C   0  0  0  0  0  0  0  0  0  0  0  0
   -9.1397   -3.8173   -0.2320 H   0  0  0  0  0  0  0  0  0  0  0  0
   -8.7946   -3.8974   -1.9535 H   0  0  0  0  0  0  0  0  0  0  0  0
   -7.4699   -4.0714   -0.7816 H   0  0  0  0  0  0  0  0  0  0  0  0
   -6.3952   -2.3257   -2.0973 H   0  0  0  0  0  0  0  0  0  0  0  0
   -7.8051   -1.8774   -3.0682 H   0  0  0  0  0  0  0  0  0  0  0  0
   -6.4006    0.1367   -2.9421 H   0  0  0  0  0  0  0  0  0  0  0  0
   -8.5207    2.5488   -1.7927 H   0  0  0  0  0  0  0  0  0  0  0  0
   -7.9228    4.9443   -1.8289 H   0  0  0  0  0  0  0  0  0  0  0  0
   -5.6938    5.6702   -1.0133 H   0  0  0  0  0  0  0  0  0  0  0  0
   -4.0839    4.0189   -0.1772 H   0  0  0  0  0  0  0  0  0  0  0  0
   -4.6560    0.2063    0.0030 H   0  0  0  0  0  0  0  0  0  0  0  0
   -2.5035    2.2596   -0.8638 H   0  0  0  0  0  0  0  0  0  0  0  0
   -2.6269    0.5533   -1.3102 H   0  0  0  0  0  0  0  0  0  0  0  0
   -3.0908   -1.1112    1.3224 H   0  0  0  0  0  0  0  0  0  0  0  0
   -1.7531   -1.0805    0.1776 H   0  0  0  0  0  0  0  0  0  0  0  0
   -1.4762   -0.4927    3.1709 H   0  0  0  0  0  0  0  0  0  0  0  0
   -1.0605   -2.0119    2.3660 H   0  0  0  0  0  0  0  0  0  0  0  0
    2.8449    0.5504    2.3999 H   0  0  0  0  0  0  0  0  0  0  0  0
    2.5967   -1.3138   -0.0863 H   0  0  0  0  0  0  0  0  0  0  0  0
    2.9464    0.4231   -0.0938 H   0  0  0  0  0  0  0  0  0  0  0  0
    5.8493   -2.5620    0.7565 H   0  0  0  0  0  0  0  0  0  0  0  0
    4.5195   -2.5790   -0.3903 H   0  0  0  0  0  0  0  0  0  0  0  0
    5.5723   -0.6525   -1.6152 H   0  0  0  0  0  0  0  0  0  0  0  0
    6.5523   -2.0978   -1.6166 H   0  0  0  0  0  0  0  0  0  0  0  0
    8.4377   -2.1343    0.1282 H   0  0  0  0  0  0  0  0  0  0  0  0
    9.5556   -0.2229    1.3237 H   0  0  0  0  0  0  0  0  0  0  0  0
   10.6353   -1.0536    0.2135 H   0  0  0  0  0  0  0  0  0  0  0  0
    8.6984    1.2469   -1.8433 H   0  0  0  0  0  0  0  0  0  0  0  0
   10.3887    1.5091   -2.2779 H   0  0  0  0  0  0  0  0  0  0  0  0
    9.5222   -0.5274   -3.4442 H   0  0  0  0  0  0  0  0  0  0  0  0
   10.7934   -0.9660   -2.2958 H   0  0  0  0  0  0  0  0  0  0  0  0
    7.5085    0.9677    1.1150 H   0  0  0  0  0  0  0  0  0  0  0  0
    7.1447   -0.6532    1.7321 H   0  0  0  0  0  0  0  0  0  0  0  0
    5.2436    0.9639    1.9739 H   0  0  0  0  0  0  0  0  0  0  0  0
    5.1968    1.1591    0.2275 H   0  0  0  0  0  0  0  0  0  0  0  0
    4.5102   -1.0877    3.1412 H   0  0  0  0  0  0  0  0  0  0  0  0
    3.7425   -2.4100    2.2432 H   0  0  0  0  0  0  0  0  0  0  0  0
    1.0655    1.4948    1.4786 H   0  0  0  0  0  0  0  0  0  0  0  0
    0.3321    0.6324    0.1155 H   0  0  0  0  0  0  0  0  0  0  0  0
   -1.1742    1.9311    2.4453 H   0  0  0  0  0  0  0  0  0  0  0  0
   -1.0048    2.6537    0.8508 H   0  0  0  0  0  0  0  0  0  0  0  0
   -4.1014    0.9177    2.2808 H   0  0  0  0  0  0  0  0  0  0  0  0
   -3.5812    2.5275    1.7575 H   0  0  0  0  0  0  0  0  0  0  0  0
   -8.7048    0.3461    0.3759 H   0  0  0  0  0  0  0  0  0  0  0  0
   -7.1295    0.2688    1.1741 H   0  0  0  0  0  0  0  0  0  0  0  0
   -6.7410   -1.9977    0.4957 H   0  0  0  0  0  0  0  0  0  0  0  0
   -8.4064   -1.9152    1.0769 H   0  0  0  0  0  0  0  0  0  0  0  0
  1  2  1  0
  2  3  1  0
  3  4  1  0
  4  5  2  0
  5  6  1  0
  6  7  2  0
  7  8  1  0
  8  9  2  0
  9 10  1  0
 10 11  2  0
 11 12  1  0
 12 13  1  0
 13 14  1  0
 14 15  1  0
 15 16  1  0
 16 17  1  0
 17 18  1  0
 18 19  2  0
 18 20  1  0
 20 21  1  0
 21 22  1  0
 22 23  1  0
 23 24  1  0
 24 25  1  0
 25 26  1  0
 26 27  1  0
 27 28  1  0
 28 29  1  0
 29 30  1  0
 30 31  1  0
 25 32  1  0
 32 33  1  0
 22 34  1  0
 17 35  1  0
 35 36  1  0
 14 37  1  0
  5 38  1  0
 38 39  1  0
 39  2  1  0
 11  6  1  0
 37 12  1  0
 36 14  1  0
 34 20  1  0
 33 22  1  0
 31 26  1  0
  1 40  1  0
  1 41  1  0
  1 42  1  0
  3 43  1  0
  3 44  1  0
  4 45  1  0
  7 46  1  0
  8 47  1  0
  9 48  1  0
 10 49  1  0
 12 50  1  0
 13 51  1  0
 13 52  1  0
 15 53  1  0
 15 54  1  0
 16 55  1  0
 16 56  1  0
 20 57  1  0
 21 58  1  0
 21 59  1  0
 23 60  1  0
 23 61  1  0
 24 62  1  0
 24 63  1  0
 26 64  1  1
 27 65  1  0
 27 66  1  0
 29 67  1  0
 29 68  1  0
 30 69  1  0
 30 70  1  0
 32 71  1  0
 32 72  1  0
 33 73  1  0
 33 74  1  0
 34 75  1  0
 34 76  1  0
 35 77  1  0
 35 78  1  0
 36 79  1  0
 36 80  1  0
 37 81  1  0
 37 82  1  0
 38 83  1  0
 38 84  1  0
 39 85  1  0
 39 86  1  0
M  END
$$$$

     RDKit          3D

 86 92  0  0  0  0  0  0  0  0999 V2000
   -6.6599   -2.8540    3.1544 C   0  0  0  0  0  0  0  0  0  0  0  0
   -6.4668   -1.8566    2.1052 N   0  0  0  0  0  0  0  0  0  0  0  0
   -6.8653   -2.4008    0.7966 C   0  0  0  0  0  0  0  0  0  0  0  0
   -6.9125   -1.3647   -0.2909 C   0  0  0  0  0  0  0  0  0  0  0  0
   -6.9086   -0.0450   -0.0359 C   0  0  0  0  0  0  0  0  0  0  0  0
   -6.9278    0.9378   -1.1296 C   0  0  0  0  0  0  0  0  0  0  0  0
   -8.1801    1.2868   -1.6662 C   0  0  0  0  0  0  0  0  0  0  0  0
   -8.2764    2.2187   -2.6943 C   0  0  0  0  0  0  0  0  0  0  0  0
   -7.1230    2.8078   -3.1917 C   0  0  0  0  0  0  0  0  0  0  0  0
   -5.8770    2.4571   -2.6637 C   0  0  0  0  0  0  0  0  0  0  0  0
   -5.7270    1.5085   -1.6252 C   0  0  0  0  0  0  0  0  0  0  0  0
   -4.2811    1.1280   -1.0573 C   0  0  0  0  0  0  0  0  0  0  0  0
   -3.1062    0.8928   -2.0458 C   0  0  0  0  0  0  0  0  0  0  0  0
   -2.1489    1.5534   -1.0004 C   0  0  0  0  0  0  0  0  0  0  0  0
   -1.4968    0.5296   -0.0506 C   0  0  0  0  0  0  0  0  0  0  0  0
   -0.2568    1.1181    0.6141 C   0  0  0  0  0  0  0  0  0  0  0  0
    0.7396    1.5264   -0.3775 N   0  0  0  0  0  0  0  0  0  0  0  0
    2.1165    1.5642   -0.1366 C   0  0  0  0  0  0  0  0  0  0  0  0
    2.9044    1.8679   -1.0414 O   0  0  0  0  0  0  0  0  0  0  0  0
    2.5937    1.2308    1.3088 C   0  0  0  0  0  0  0  0  0  0  0  0
    2.8309   -0.2581    1.6629 C   0  0  0  0  0  0  0  0  0  0  0  0
    4.3650   -0.0399    1.5330 C   0  0  0  0  0  0  0  0  0  0  0  0
    5.1508   -0.6399    2.7098 C   0  0  0  0  0  0  0  0  0  0  0  0
    6.6148   -0.8272    2.3143 C   0  0  0  0  0  0  0  0  0  0  0  0
    6.7351   -1.8259    1.2503 N   0  0  0  0  0  0  0  0  0  0  0  0
    8.0828   -1.9169    0.6862 C   0  0  2  0  0  0  0  0  0  0  0  0
    8.5156   -0.7420   -0.2358 C   0  0  0  0  0  0  0  0  0  0  0  0
    9.8888   -0.8458   -0.6571 O   0  0  0  0  0  0  0  0  0  0  0  0
   10.3246   -2.2062   -0.7806 C   0  0  0  0  0  0  0  0  0  0  0  0
    9.1680   -3.1622   -1.0578 C   0  0  0  0  0  0  0  0  0  0  0  0
    8.2229   -3.1859    0.0167 O   0  0  0  0  0  0  0  0  0  0  0  0
    5.6542   -1.7965    0.2603 C   0  0  0  0  0  0  0  0  0  0  0  0
    4.9591   -0.4374    0.1681 C   0  0  0  0  0  0  0  0  0  0  0  0
    4.0822    1.4869    1.6562 C   0  0  0  0  0  0  0  0  0  0  0  0
    0.2421    1.9250   -1.6952 C   0  0  0  0  0  0  0  0  0  0  0  0
   -1.1429    2.5530   -1.5913 C   0  0  0  0  0  0  0  0  0  0  0  0
   -3.4199    2.2555   -0.4268 C   0  0  0  0  0  0  0  0  0  0  0  0
   -6.8925    0.4770    1.3764 C   0  0  0  0  0  0  0  0  0  0  0  0
   -7.2126   -0.6247    2.4029 C   0  0  0  0  0  0  0  0  0  0  0  0
   -6.0774   -3.7568    2.9392 H   0  0  0  0  0  0  0  0  0  0  0  0
   -7.7118   -3.1404    3.2671 H   0  0  0  0  0  0  0  0  0  0  0  0
   -6.3028   -2.4723    4.1173 H   0  0  0  0  0  0  0  0  0  0  0  0
   -6.1399   -3.1691    0.5032 H   0  0  0  0  0  0  0  0  0  0  0  0
   -7.8514   -2.8805    0.8487 H   0  0  0  0  0  0  0  0  0  0  0  0
   -6.9442   -1.7304   -1.3137 H   0  0  0  0  0  0  0  0  0  0  0  0
   -9.0871    0.8305   -1.2760 H   0  0  0  0  0  0  0  0  0  0  0  0
   -9.2477    2.4845   -3.1016 H   0  0  0  0  0  0  0  0  0  0  0  0
   -7.1860    3.5406   -3.9919 H   0  0  0  0  0  0  0  0  0  0  0  0
   -4.9925    2.9407   -3.0747 H   0  0  0  0  0  0  0  0  0  0  0  0
   -4.3424    0.2720   -0.3693 H   0  0  0  0  0  0  0  0  0  0  0  0
   -3.1868    1.4376   -2.9933 H   0  0  0  0  0  0  0  0  0  0  0  0
   -2.9088   -0.1572   -2.2848 H   0  0  0  0  0  0  0  0  0  0  0  0
   -1.1968   -0.3608   -0.6186 H   0  0  0  0  0  0  0  0  0  0  0  0
   -2.2017    0.1911    0.7173 H   0  0  0  0  0  0  0  0  0  0  0  0
   -0.5155    2.0085    1.1989 H   0  0  0  0  0  0  0  0  0  0  0  0
    0.1718    0.3808    1.2972 H   0  0  0  0  0  0  0  0  0  0  0  0
    1.9524    1.7347    2.0462 H   0  0  0  0  0  0  0  0  0  0  0  0
    2.3963   -0.9871    0.9714 H   0  0  0  0  0  0  0  0  0  0  0  0
    2.4881   -0.5107    2.6741 H   0  0  0  0  0  0  0  0  0  0  0  0
    4.7265   -1.6123    2.9941 H   0  0  0  0  0  0  0  0  0  0  0  0
    5.0820   -0.0031    3.5994 H   0  0  0  0  0  0  0  0  0  0  0  0
    7.0281    0.1422    2.0127 H   0  0  0  0  0  0  0  0  0  0  0  0
    7.1797   -1.1661    3.1904 H   0  0  0  0  0  0  0  0  0  0  0  0
    8.7979   -1.9690    1.5180 H   0  0  0  0  0  0  0  0  0  0  0  0
    8.4138    0.2236    0.2672 H   0  0  0  0  0  0  0  0  0  0  0  0
    7.9057   -0.7084   -1.1456 H   0  0  0  0  0  0  0  0  0  0  0  0
   10.8273   -2.4747    0.1552 H   0  0  0  0  0  0  0  0  0  0  0  0
   11.0636   -2.2474   -1.5862 H   0  0  0  0  0  0  0  0  0  0  0  0
    9.5376   -4.1825   -1.1971 H   0  0  0  0  0  0  0  0  0  0  0  0
    8.6325   -2.8714   -1.9685 H   0  0  0  0  0  0  0  0  0  0  0  0
    5.9959   -2.1013   -0.7358 H   0  0  0  0  0  0  0  0  0  0  0  0
    4.9132   -2.5494    0.5583 H   0  0  0  0  0  0  0  0  0  0  0  0
    4.1839   -0.4812   -0.6048 H   0  0  0  0  0  0  0  0  0  0  0  0
    5.6860    0.3154   -0.1618 H   0  0  0  0  0  0  0  0  0  0  0  0
    4.6320    2.1351    0.9665 H   0  0  0  0  0  0  0  0  0  0  0  0
    4.2138    1.8991    2.6646 H   0  0  0  0  0  0  0  0  0  0  0  0
    0.9348    2.6335   -2.1616 H   0  0  0  0  0  0  0  0  0  0  0  0
    0.2164    1.0239   -2.3193 H   0  0  0  0  0  0  0  0  0  0  0  0
   -1.0779    3.4367   -0.9426 H   0  0  0  0  0  0  0  0  0  0  0  0
   -1.4685    2.9095   -2.5750 H   0  0  0  0  0  0  0  0  0  0  0  0
   -3.6112    3.2521   -0.8439 H   0  0  0  0  0  0  0  0  0  0  0  0
   -3.4758    2.3301    0.6637 H   0  0  0  0  0  0  0  0  0  0  0  0
   -5.9019    0.8970    1.5918 H   0  0  0  0  0  0  0  0  0  0  0  0
   -7.6232    1.2861    1.4947 H   0  0  0  0  0  0  0  0  0  0  0  0
   -8.2938   -0.8196    2.4146 H   0  0  0  0  0  0  0  0  0  0  0  0
   -6.9430   -0.2489    3.3977 H   0  0  0  0  0  0  0  0  0  0  0  0
  1  2  1  0
  2  3  1  0
  3  4  1  0
  4  5  2  0
  5  6  1  0
  6  7  2  0
  7  8  1  0
  8  9  2  0
  9 10  1  0
 10 11  2  0
 11 12  1  0
 12 13  1  0
 13 14  1  0
 14 15  1  0
 15 16  1  0
 16 17  1  0
 17 18  1  0
 18 19  2  0
 18 20  1  0
 20 21  1  0
 21 22  1  0
 22 23  1  0
 23 24  1  0
 24 25  1  0
 25 26  1  0
 26 27  1  0
 27 28  1  0
 28 29  1  0
 29 30  1  0
 30 31  1  0
 25 32  1  0
 32 33  1  0
 22 34  1  0
 17 35  1  0
 35 36  1  0
 14 37  1  0
  5 38  1  0
 38 39  1  0
 39  2  1  0
 11  6  1  0
 37 12  1  0
 36 14  1  0
 34 20  1  0
 33 22  1  0
 31 26  1  0
  1 40  1  0
  1 41  1  0
  1 42  1  0
  3 43  1  0
  3 44  1  0
  4 45  1  0
  7 46  1  0
  8 47  1  0
  9 48  1  0
 10 49  1  0
 12 50  1  0
 13 51  1  0
 13 52  1  0
 15 53  1  0
 15 54  1  0
 16 55  1  0
 16 56  1  0
 20 57  1  0
 21 58  1  0
 21 59  1  0
 23 60  1  0
 23 61  1  0
 24 62  1  0
 24 63  1  0
 26 64  1  1
 27 65  1  0
 27 66  1  0
 29 67  1  0
 29 68  1  0
 30 69  1  0
 30 70  1  0
 32 71  1  0
 32 72  1  0
 33 73  1  0
 33 74  1  0
 34 75  1  0
 34 76  1  0
 35 77  1  0
 35 78  1  0
 36 79  1  0
 36 80  1  0
 37 81  1  0
 37 82  1  0
 38 83  1  0
 38 84  1  0
 39 85  1  0
 39 86  1  0
M  END
$$$$
