
     RDKit          3D

 71 76  0  0  0  0  0  0  0  0999 V2000
   -6.2420    3.5608   -1.3982 C   0  0  0  0  0  0  0  0  0  0  0  0
   -6.0507    2.1781   -0.9714 N   0  0  0  0  0  0  0  0  0  0  0  0
   -5.0132    1.5238   -1.7858 C   0  0  0  0  0  0  0  0  0  0  0  0
   -4.5708    0.1946   -1.2471 C   0  0  0  0  0  0  0  0  0  0  0  0
   -4.8525   -0.2271   -0.0012 C   0  0  0  0  0  0  0  0  0  0  0  0
   -4.3946   -1.5457    0.4920 C   0  0  0  0  0  0  0  0  0  0  0  0
   -5.3835   -2.4594    0.9021 C   0  0  0  0  0  0  0  0  0  0  0  0
   -5.0430   -3.7318    1.3576 C   0  0  0  0  0  0  0  0  0  0  0  0
   -3.7077   -4.1089    1.4115 C   0  0  0  0  0  0  0  0  0  0  0  0
   -2.7131   -3.2143    1.0095 C   0  0  0  0  0  0  0  0  0  0  0  0
   -3.0257   -1.9236    0.5414 C   0  0  0  0  0  0  0  0  0  0  0  0
   -2.0067   -1.0157    0.1817 N   0  0  0  0  0  0  0  0  0  0  0  0
   -1.6934   -0.0759    1.2721 C   0  0  0  0  0  0  0  0  0  0  0  0
   -0.5016    0.7891    0.8692 C   0  0  0  0  0  0  0  0  0  0  0  0
    0.7510   -0.0857    0.6940 C   0  0  0  0  0  0  0  0  0  0  0  0
    0.4172   -1.5189    0.2321 C   0  0  0  0  0  0  0  0  0  0  0  0
   -0.8669   -1.5301   -0.5940 C   0  0  0  0  0  0  0  0  0  0  0  0
    1.8592    0.6225   -0.1362 C   0  0  0  0  0  0  0  0  0  0  0  0
    2.9133    0.1882    0.9123 C   0  0  0  0  0  0  0  0  0  0  0  0
    3.8283   -1.0180    0.5683 C   0  0  0  0  0  0  0  0  0  0  0  0
    3.6345   -2.1528    1.0240 O   0  0  0  0  0  0  0  0  0  0  0  0
    4.8930   -0.7909   -0.2917 N   0  0  0  0  0  0  0  0  0  0  0  0
    5.7042   -1.9105   -0.7447 C   0  0  0  0  0  0  0  0  0  0  0  0
    6.7705   -1.2930   -1.6332 C   0  0  0  0  0  0  0  0  0  0  0  0
    6.0681   -0.0605   -2.1900 C   0  0  0  0  0  0  0  0  0  0  0  0
    5.2369    0.4419   -1.0009 C   0  0  2  0  0  0  0  0  0  0  0  0
    6.0447    1.3498   -0.1056 C   0  0  0  0  0  0  0  0  0  0  0  0
    6.5412    2.6821   -0.6214 C   0  0  0  0  0  0  0  0  0  0  0  0
    5.4687    2.6429    0.4243 C   0  0  0  0  0  0  0  0  0  0  0  0
    1.7389   -0.0498    1.8969 C   0  0  0  0  0  0  0  0  0  0  0  0
   -5.6546    0.6424    0.9326 C   0  0  0  0  0  0  0  0  0  0  0  0
   -5.7083    2.1049    0.4560 C   0  0  0  0  0  0  0  0  0  0  0  0
   -6.5243    3.6017   -2.4561 H   0  0  0  0  0  0  0  0  0  0  0  0
   -7.0597    4.0262   -0.8368 H   0  0  0  0  0  0  0  0  0  0  0  0
   -5.3402    4.1677   -1.2578 H   0  0  0  0  0  0  0  0  0  0  0  0
   -4.1227    2.1597   -1.8767 H   0  0  0  0  0  0  0  0  0  0  0  0
   -5.4104    1.3682   -2.7959 H   0  0  0  0  0  0  0  0  0  0  0  0
   -3.9754   -0.4261   -1.9111 H   0  0  0  0  0  0  0  0  0  0  0  0
   -6.4351   -2.1867    0.8482 H   0  0  0  0  0  0  0  0  0  0  0  0
   -5.8206   -4.4256    1.6648 H   0  0  0  0  0  0  0  0  0  0  0  0
   -3.4337   -5.0974    1.7698 H   0  0  0  0  0  0  0  0  0  0  0  0
   -1.6782   -3.5339    1.0884 H   0  0  0  0  0  0  0  0  0  0  0  0
   -2.5487    0.5790    1.4708 H   0  0  0  0  0  0  0  0  0  0  0  0
   -1.4631   -0.6171    2.1995 H   0  0  0  0  0  0  0  0  0  0  0  0
   -0.3363    1.5733    1.6167 H   0  0  0  0  0  0  0  0  0  0  0  0
   -0.7353    1.2997   -0.0747 H   0  0  0  0  0  0  0  0  0  0  0  0
    0.2894   -2.1692    1.1061 H   0  0  0  0  0  0  0  0  0  0  0  0
    1.2336   -1.9455   -0.3608 H   0  0  0  0  0  0  0  0  0  0  0  0
   -1.0544   -2.5327   -0.9967 H   0  0  0  0  0  0  0  0  0  0  0  0
   -0.7395   -0.8781   -1.4675 H   0  0  0  0  0  0  0  0  0  0  0  0
    1.7566    1.7129   -0.2037 H   0  0  0  0  0  0  0  0  0  0  0  0
    2.0025    0.2369   -1.1506 H   0  0  0  0  0  0  0  0  0  0  0  0
    3.5193    1.0272    1.2718 H   0  0  0  0  0  0  0  0  0  0  0  0
    5.0587   -2.5906   -1.3123 H   0  0  0  0  0  0  0  0  0  0  0  0
    6.1251   -2.4520    0.1080 H   0  0  0  0  0  0  0  0  0  0  0  0
    7.1152   -1.9772   -2.4133 H   0  0  0  0  0  0  0  0  0  0  0  0
    7.6383   -0.9934   -1.0339 H   0  0  0  0  0  0  0  0  0  0  0  0
    6.7717    0.6754   -2.5889 H   0  0  0  0  0  0  0  0  0  0  0  0
    5.3983   -0.3665   -3.0037 H   0  0  0  0  0  0  0  0  0  0  0  0
    4.3323    0.9471   -1.3515 H   0  0  0  0  0  0  0  0  0  0  0  0
    6.7231    0.8012    0.5410 H   0  0  0  0  0  0  0  0  0  0  0  0
    7.5327    3.0029   -0.3208 H   0  0  0  0  0  0  0  0  0  0  0  0
    6.2591    3.0003   -1.6188 H   0  0  0  0  0  0  0  0  0  0  0  0
    5.7316    2.9342    1.4354 H   0  0  0  0  0  0  0  0  0  0  0  0
    4.4707    2.9426    0.1256 H   0  0  0  0  0  0  0  0  0  0  0  0
    1.7940   -0.9600    2.5022 H   0  0  0  0  0  0  0  0  0  0  0  0
    1.5916    0.7907    2.5870 H   0  0  0  0  0  0  0  0  0  0  0  0
   -5.2205    0.6218    1.9397 H   0  0  0  0  0  0  0  0  0  0  0  0
   -6.6764    0.2493    1.0064 H   0  0  0  0  0  0  0  0  0  0  0  0
   -4.7457    2.5972    0.6515 H   0  0  0  0  0  0  0  0  0  0  0  0
   -6.4649    2.6279    1.0540 H   0  0  0  0  0  0  0  0  0  0  0  0
  1  2  1  0
  2  3  1  0
  3  4  1  0
  4  5  2  0
  5  6  1  0
  6  7  2  0
  7  8  1  0
  8  9  2  0
  9 10  1  0
 10 11  2  0
 11 12  1  0
 12 13  1  0
 13 14  1  0
 14 15  1  0
 15 16  1  0
 16 17  1  0
 15 18  1  0
 18 19  1  0
 19 20  1  0
 20 21  2  0
 20 22  1  0
 22 23  1  0
 23 24  1  0
 24 25  1  0
 25 26  1  0
 26 27  1  0
 27 28  1  0
 28 29  1  0
 19 30  1  0
  5 31  1  0
 31 32  1  0
 32  2  1  0
 11  6  1  0
 17 12  1  0
 26 22  1  0
 29 27  1  0
 30 15  1  0
  1 33  1  0
  1 34  1  0
  1 35  1  0
  3 36  1  0
  3 37  1  0
  4 38  1  0
  7 39  1  0
  8 40  1  0
  9 41  1  0
 10 42  1  0
 13 43  1  0
 13 44  1  0
 14 45  1  0
 14 46  1  0
 16 47  1  0
 16 48  1  0
 17 49  1  0
 17 50  1  0
 18 51  1  0
 18 52  1  0
 19 53  1  0
 23 54  1  0
 23 55  1  0
 24 56  1  0
 24 57  1  0
 25 58  1  0
 25 59  1  0
 26 60  1  6
 27 61  1  0
 28 62  1  0
 28 63  1  0
 29 64  1  0
 29 65  1  0
 30 66  1  0
 30 67  1  0
 31 68  1  0
 31 69  1  0
 32 70  1  0
 32 71  1  0
M  END
$$$$

     RDKit          3D

 71 76  0  0  0  0  0  0  0  0999 V2000
    3.4462    2.3898    2.1411 C   0  0  0  0  0  0  0  0  0  0  0  0
    4.8602    2.1155    1.8924 N   0  0  0  0  0  0  0  0  0  0  0  0
    5.2769    0.8418    2.4980 C   0  0  0  0  0  0  0  0  0  0  0  0
    5.0041   -0.3879    1.6763 C   0  0  0  0  0  0  0  0  0  0  0  0
    4.6568   -0.3472    0.3757 C   0  0  0  0  0  0  0  0  0  0  0  0
    4.4343   -1.5873   -0.4076 C   0  0  0  0  0  0  0  0  0  0  0  0
    5.5226   -2.4800   -0.5012 C   0  0  0  0  0  0  0  0  0  0  0  0
    5.4520   -3.6229   -1.2928 C   0  0  0  0  0  0  0  0  0  0  0  0
    4.2959   -3.8834   -2.0127 C   0  0  0  0  0  0  0  0  0  0  0  0
    3.2084   -3.0085   -1.9299 C   0  0  0  0  0  0  0  0  0  0  0  0
    3.2343   -1.8558   -1.1222 C   0  0  0  0  0  0  0  0  0  0  0  0
    2.1142   -1.0236   -1.0223 N   0  0  0  0  0  0  0  0  0  0  0  0
    1.4777   -0.9366    0.2996 C   0  0  0  0  0  0  0  0  0  0  0  0
    0.2473   -1.8411    0.3644 C   0  0  0  0  0  0  0  0  0  0  0  0
   -0.7212   -1.4833   -0.7669 C   0  0  0  0  0  0  0  0  0  0  0  0
   -0.0290   -1.6276   -2.1302 C   0  0  0  0  0  0  0  0  0  0  0  0
    1.2457   -0.7821   -2.1768 C   0  0  0  0  0  0  0  0  0  0  0  0
   -2.0790   -2.2349   -0.6753 C   0  0  0  0  0  0  0  0  0  0  0  0
   -2.8044   -0.9126   -1.0538 C   0  0  0  0  0  0  0  0  0  0  0  0
   -4.1503   -0.6131   -0.3388 C   0  0  0  0  0  0  0  0  0  0  0  0
   -4.8038   -1.4916    0.2356 O   0  0  0  0  0  0  0  0  0  0  0  0
   -4.5893    0.7049   -0.3664 N   0  0  0  0  0  0  0  0  0  0  0  0
   -4.1132    1.7206   -1.2903 C   0  0  0  0  0  0  0  0  0  0  0  0
   -5.3387    2.5783   -1.5584 C   0  0  0  0  0  0  0  0  0  0  0  0
   -6.0519    2.5598   -0.2147 C   0  0  0  0  0  0  0  0  0  0  0  0
   -5.8334    1.1239    0.2849 C   0  0  2  0  0  0  0  0  0  0  0  0
   -5.7449    0.9623    1.7799 C   0  0  0  0  0  0  0  0  0  0  0  0
   -4.8171    1.7927    2.6346 C   0  0  0  0  0  0  0  0  0  0  0  0
   -6.3082    1.9563    2.7684 C   0  0  0  0  0  0  0  0  0  0  0  0
   -1.5337   -0.1715   -0.5557 C   0  0  0  0  0  0  0  0  0  0  0  0
    4.5352    0.9724   -0.3456 C   0  0  0  0  0  0  0  0  0  0  0  0
    5.1761    2.1230    0.4533 C   0  0  0  0  0  0  0  0  0  0  0  0
    3.2651    2.4950    3.2168 H   0  0  0  0  0  0  0  0  0  0  0  0
    3.1537    3.3420    1.6845 H   0  0  0  0  0  0  0  0  0  0  0  0
    2.7789    1.6092    1.7628 H   0  0  0  0  0  0  0  0  0  0  0  0
    4.8186    0.7250    3.4880 H   0  0  0  0  0  0  0  0  0  0  0  0
    6.3585    0.8861    2.6785 H   0  0  0  0  0  0  0  0  0  0  0  0
    5.1145   -1.3398    2.1887 H   0  0  0  0  0  0  0  0  0  0  0  0
    6.4488   -2.2692    0.0293 H   0  0  0  0  0  0  0  0  0  0  0  0
    6.3018   -4.2965   -1.3561 H   0  0  0  0  0  0  0  0  0  0  0  0
    4.2311   -4.7690   -2.6390 H   0  0  0  0  0  0  0  0  0  0  0  0
    2.3206   -3.2644   -2.4974 H   0  0  0  0  0  0  0  0  0  0  0  0
    1.1805    0.1053    0.4694 H   0  0  0  0  0  0  0  0  0  0  0  0
    2.1528   -1.2079    1.1180 H   0  0  0  0  0  0  0  0  0  0  0  0
   -0.2335   -1.7292    1.3436 H   0  0  0  0  0  0  0  0  0  0  0  0
    0.5518   -2.8917    0.2758 H   0  0  0  0  0  0  0  0  0  0  0  0
    0.2080   -2.6832   -2.3025 H   0  0  0  0  0  0  0  0  0  0  0  0
   -0.6915   -1.3216   -2.9483 H   0  0  0  0  0  0  0  0  0  0  0  0
    0.9702    0.2798   -2.1653 H   0  0  0  0  0  0  0  0  0  0  0  0
    1.7751   -0.9398   -3.1243 H   0  0  0  0  0  0  0  0  0  0  0  0
   -2.3222   -2.6034    0.3292 H   0  0  0  0  0  0  0  0  0  0  0  0
   -2.2201   -3.0593   -1.3813 H   0  0  0  0  0  0  0  0  0  0  0  0
   -2.9234   -0.8451   -2.1450 H   0  0  0  0  0  0  0  0  0  0  0  0
   -3.3334    2.2954   -0.7794 H   0  0  0  0  0  0  0  0  0  0  0  0
   -3.7069    1.2921   -2.2092 H   0  0  0  0  0  0  0  0  0  0  0  0
   -5.0831    3.5869   -1.8941 H   0  0  0  0  0  0  0  0  0  0  0  0
   -5.9712    2.1087   -2.3214 H   0  0  0  0  0  0  0  0  0  0  0  0
   -7.1138    2.8104   -0.2982 H   0  0  0  0  0  0  0  0  0  0  0  0
   -5.5846    3.3073    0.4352 H   0  0  0  0  0  0  0  0  0  0  0  0
   -6.6353    0.4792   -0.0974 H   0  0  0  0  0  0  0  0  0  0  0  0
   -5.8444   -0.0862    2.0516 H   0  0  0  0  0  0  0  0  0  0  0  0
   -4.2487    2.5909    2.1740 H   0  0  0  0  0  0  0  0  0  0  0  0
   -4.2864    1.2843    3.4325 H   0  0  0  0  0  0  0  0  0  0  0  0
   -6.7809    1.5614    3.6619 H   0  0  0  0  0  0  0  0  0  0  0  0
   -6.7554    2.8770    2.4161 H   0  0  0  0  0  0  0  0  0  0  0  0
   -1.2279    0.6850   -1.1636 H   0  0  0  0  0  0  0  0  0  0  0  0
   -1.5990    0.1576    0.4889 H   0  0  0  0  0  0  0  0  0  0  0  0
    3.4807    1.2076   -0.5257 H   0  0  0  0  0  0  0  0  0  0  0  0
    5.0273    0.9153   -1.3243 H   0  0  0  0  0  0  0  0  0  0  0  0
    6.2678    2.0713    0.3409 H   0  0  0  0  0  0  0  0  0  0  0  0
    4.8856    3.0834    0.0092 H   0  0  0  0  0  0  0  0  0  0  0  0
  1  2  1  0
  2  3  1  0
  3  4  1  0
  4  5  2  0
  5  6  1  0
  6  7  2  0
  7  8  1  0
  8  9  2  0
  9 10  1  0
 10 11  2  0
 11 12  1  0
 12 13  1  0
 13 14  1  0
 14 15  1  0
 15 16  1  0
 16 17  1  0
 15 18  1  0
 18 19  1  0
 19 20  1  0
 20 21  2  0
 20 22  1  0
 22 23  1  0
 23 24  1  0
 24 25  1  0
 25 26  1  0
 26 27  1  0
 27 28  1  0
 28 29  1  0
 19 30  1  0
  5 31  1  0
 31 32  1  0
 32  2  1  0
 11  6  1  0
 17 12  1  0
 26 22  1  0
 29 27  1  0
 30 15  1  0
  1 33  1  0
  1 34  1  0
  1 35  1  0
  3 36  1  0
  3 37  1  0
  4 38  1  0
  7 39  1  0
  8 40  1  0
  9 41  1  0
 10 42  1  0
 13 43  1  0
 13 44  1  0
 14 45  1  0
 14 46  1  0
 16 47  1  0
 16 48  1  0
 17 49  1  0
 17 50  1  0
 18 51  1  0
 18 52  1  0
 19 53  1  0
 23 54  1  0
 23 55  1  0
 24 56  1  0
 24 57  1  0
 25 58  1  0
 25 59  1  0
 26 60  1  6
 27 61  1  0
 28 62  1  0
 28 63  1  0
 29 64  1  0
 29 65  1  0
 30 66  1  0
 30 67  1  0
 31 68  1  0
 31 69  1  0
 32 70  1  0
 32 71  1  0
M  END
$$$$

     RDKit          3D

 71 76  0  0  0  0  0  0  0  0999 V2000
   -6.9502    2.5048    0.1813 C   0  0  0  0  0  0  0  0  0  0  0  0
   -5.4988    2.6761    0.1344 N   0  0  0  0  0  0  0  0  0  0  0  0
   -4.8427    2.0127    1.2731 C   0  0  0  0  0  0  0  0  0  0  0  0
   -4.5906    0.5419    1.1036 C   0  0  0  0  0  0  0  0  0  0  0  0
   -4.6659   -0.0922   -0.0809 C   0  0  0  0  0  0  0  0  0  0  0  0
   -4.3967   -1.5441   -0.1985 C   0  0  0  0  0  0  0  0  0  0  0  0
   -5.4291   -2.3537   -0.7083 C   0  0  0  0  0  0  0  0  0  0  0  0
   -5.2685   -3.7328   -0.8307 C   0  0  0  0  0  0  0  0  0  0  0  0
   -4.0718   -4.3232   -0.4467 C   0  0  0  0  0  0  0  0  0  0  0  0
   -3.0361   -3.5351    0.0603 C   0  0  0  0  0  0  0  0  0  0  0  0
   -3.1693   -2.1403    0.1994 C   0  0  0  0  0  0  0  0  0  0  0  0
   -2.0981   -1.3544    0.6726 N   0  0  0  0  0  0  0  0  0  0  0  0
   -1.3436   -0.7207   -0.4227 C   0  0  0  0  0  0  0  0  0  0  0  0
   -0.1420    0.0248    0.1529 C   0  0  0  0  0  0  0  0  0  0  0  0
    0.8231   -0.9635    0.8281 C   0  0  0  0  0  0  0  0  0  0  0  0
    0.1081   -2.2122    1.3844 C   0  0  0  0  0  0  0  0  0  0  0  0
   -1.3153   -1.8607    1.8108 C   0  0  0  0  0  0  0  0  0  0  0  0
    1.7867   -0.2660    1.8401 C   0  0  0  0  0  0  0  0  0  0  0  0
    2.9546   -1.0744    1.2425 C   0  0  0  0  0  0  0  0  0  0  0  0
    4.3883   -0.5340    1.1047 C   0  0  0  0  0  0  0  0  0  0  0  0
    5.3345   -1.2015    1.5569 O   0  0  0  0  0  0  0  0  0  0  0  0
    4.6541    0.6638    0.4461 N   0  0  0  0  0  0  0  0  0  0  0  0
    3.7143    1.7314    0.1505 C   0  0  0  0  0  0  0  0  0  0  0  0
    4.5245    2.7723   -0.6012 C   0  0  0  0  0  0  0  0  0  0  0  0
    5.9040    2.6281    0.0279 C   0  0  0  0  0  0  0  0  0  0  0  0
    6.0390    1.1187    0.2609 C   0  0  2  0  0  0  0  0  0  0  0  0
    6.6863    0.3314   -0.8568 C   0  0  0  0  0  0  0  0  0  0  0  0
    8.0588    0.7034   -1.3670 C   0  0  0  0  0  0  0  0  0  0  0  0
    6.8675    0.8139   -2.2780 C   0  0  0  0  0  0  0  0  0  0  0  0
    2.0899   -1.3195   -0.0129 C   0  0  0  0  0  0  0  0  0  0  0  0
   -5.0260    0.6658   -1.3336 C   0  0  0  0  0  0  0  0  0  0  0  0
   -4.9281    2.1900   -1.1331 C   0  0  0  0  0  0  0  0  0  0  0  0
   -7.2654    1.4560    0.1766 H   0  0  0  0  0  0  0  0  0  0  0  0
   -7.4228    3.0083   -0.6695 H   0  0  0  0  0  0  0  0  0  0  0  0
   -7.3576    2.9752    1.0834 H   0  0  0  0  0  0  0  0  0  0  0  0
   -5.4202    2.1789    2.1910 H   0  0  0  0  0  0  0  0  0  0  0  0
   -3.8738    2.4992    1.4431 H   0  0  0  0  0  0  0  0  0  0  0  0
   -4.3042   -0.0055    1.9979 H   0  0  0  0  0  0  0  0  0  0  0  0
   -6.3799   -1.9118   -0.9967 H   0  0  0  0  0  0  0  0  0  0  0  0
   -6.0785   -4.3425   -1.2214 H   0  0  0  0  0  0  0  0  0  0  0  0
   -3.9378   -5.3972   -0.5434 H   0  0  0  0  0  0  0  0  0  0  0  0
   -2.1056   -4.0268    0.3278 H   0  0  0  0  0  0  0  0  0  0  0  0
   -1.0025   -1.4736   -1.1457 H   0  0  0  0  0  0  0  0  0  0  0  0
   -1.9738   -0.0038   -0.9601 H   0  0  0  0  0  0  0  0  0  0  0  0
   -0.4993    0.7583    0.8880 H   0  0  0  0  0  0  0  0  0  0  0  0
    0.3612    0.5929   -0.6375 H   0  0  0  0  0  0  0  0  0  0  0  0
    0.0712   -2.9922    0.6138 H   0  0  0  0  0  0  0  0  0  0  0  0
    0.6559   -2.6363    2.2337 H   0  0  0  0  0  0  0  0  0  0  0  0
   -1.2815   -1.0689    2.5698 H   0  0  0  0  0  0  0  0  0  0  0  0
   -1.7922   -2.7199    2.2972 H   0  0  0  0  0  0  0  0  0  0  0  0
    1.8397    0.8181    1.7290 H   0  0  0  0  0  0  0  0  0  0  0  0
    1.5855   -0.4689    2.8977 H   0  0  0  0  0  0  0  0  0  0  0  0
    3.0279   -2.0261    1.8013 H   0  0  0  0  0  0  0  0  0  0  0  0
    2.8584    1.3795   -0.4244 H   0  0  0  0  0  0  0  0  0  0  0  0
    3.3708    2.1476    1.1029 H   0  0  0  0  0  0  0  0  0  0  0  0
    4.1129    3.7799   -0.4946 H   0  0  0  0  0  0  0  0  0  0  0  0
    4.5559    2.5285   -1.6682 H   0  0  0  0  0  0  0  0  0  0  0  0
    6.6951    3.0770   -0.5770 H   0  0  0  0  0  0  0  0  0  0  0  0
    5.9025    3.1434    0.9974 H   0  0  0  0  0  0  0  0  0  0  0  0
    6.6063    0.9345    1.1812 H   0  0  0  0  0  0  0  0  0  0  0  0
    6.5295   -0.7356   -0.7151 H   0  0  0  0  0  0  0  0  0  0  0  0
    8.5229    1.6173   -1.0163 H   0  0  0  0  0  0  0  0  0  0  0  0
    8.7631   -0.1022   -1.5458 H   0  0  0  0  0  0  0  0  0  0  0  0
    6.5547    1.8070   -2.5706 H   0  0  0  0  0  0  0  0  0  0  0  0
    6.7659    0.0795   -3.0703 H   0  0  0  0  0  0  0  0  0  0  0  0
    2.2944   -0.6509   -0.8543 H   0  0  0  0  0  0  0  0  0  0  0  0
    2.1329   -2.3433   -0.4004 H   0  0  0  0  0  0  0  0  0  0  0  0
   -6.0452    0.4037   -1.6418 H   0  0  0  0  0  0  0  0  0  0  0  0
   -4.3552    0.3812   -2.1536 H   0  0  0  0  0  0  0  0  0  0  0  0
   -3.8709    2.4871   -1.1703 H   0  0  0  0  0  0  0  0  0  0  0  0
   -5.4016    2.7018   -1.9802 H   0  0  0  0  0  0  0  0  0  0  0  0
  1  2  1  0
  2  3  1  0
  3  4  1  0
  4  5  2  0
  5  6  1  0
  6  7  2  0
  7  8  1  0
  8  9  2  0
  9 10  1  0
 10 11  2  0
 11 12  1  0
 12 13  1  0
 13 14  1  0
 14 15  1  0
 15 16  1  0
 16 17  1  0
 15 18  1  0
 18 19  1  0
 19 20  1  0
 20 21  2  0
 20 22  1  0
 22 23  1  0
 23 24  1  0
 24 25  1  0
 25 26  1  0
 26 27  1  0
 27 28  1  0
 28 29  1  0
 19 30  1  0
  5 31  1  0
 31 32  1  0
 32  2  1  0
 11  6  1  0
 17 12  1  0
 26 22  1  0
 29 27  1  0
 30 15  1  0
  1 33  1  0
  1 34  1  0
  1 35  1  0
  3 36  1  0
  3 37  1  0
  4 38  1  0
  7 39  1  0
  8 40  1  0
  9 41  1  0
 10 42  1  0
 13 43  1  0
 13 44  1  0
 14 45  1  0
 14 46  1  0
 16 47  1  0
 16 48  1  0
 17 49  1  0
 17 50  1  0
 18 51  1  0
 18 52  1  0
 19 53  1  0
 23 54  1  0
 23 55  1  0
 24 56  1  0
 24 57  1  0
 25 58  1  0
 25 59  1  0
 26 60  1  1
 27 61  1  0
 28 62  1  0
 28 63  1  0
 29 64  1  0
 29 65  1  0
 30 66  1  0
 30 67  1  0
 31 68  1  0
 31 69  1  0
 32 70  1  0
 32 71  1  0
M  END
$$$$
