
     RDKit          3D

 63 68  0  0  0  0  0  0  0  0999 V2000
   -3.4928   -4.3149    0.6227 C   0  0  0  0  0  0  0  0  0  0  0  0
   -2.7359   -3.0958    0.3701 N   0  0  0  0  0  0  0  0  0  0  0  0
   -1.8765   -3.2049   -0.8157 C   0  0  0  0  0  0  0  0  0  0  0  0
   -1.0014   -1.9365   -1.0329 C   0  0  0  0  0  0  0  0  0  0  0  0
   -1.6693   -0.6860   -0.6371 N   0  0  0  0  0  0  0  0  0  0  0  0
   -1.1212    0.0279    0.4461 C   0  0  0  0  0  0  0  0  0  0  0  0
   -1.8151    0.3312    1.4274 O   0  0  0  0  0  0  0  0  0  0  0  0
    0.3328    0.5336    0.3427 C   0  0  0  0  0  0  0  0  0  0  0  0
    1.4574   -0.2685    1.0353 C   0  0  0  0  0  0  0  0  0  0  0  0
    2.4352    0.1909   -0.0914 C   0  0  0  0  0  0  0  0  0  0  0  0
    3.3073   -0.9255   -0.6850 C   0  0  0  0  0  0  0  0  0  0  0  0
    4.7206   -0.8456   -0.1085 C   0  0  0  0  0  0  0  0  0  0  0  0
    5.3816    0.4002   -0.5085 N   0  0  0  0  0  0  0  0  0  0  0  0
    6.6817    0.7097    0.1057 C   0  0  0  0  0  0  0  0  0  0  0  0
    7.4833   -0.2758    0.9106 C   0  0  0  0  0  0  0  0  0  0  0  0
    6.8192    0.8853    1.5939 C   0  0  0  0  0  0  0  0  0  0  0  0
    4.4829    1.5599   -0.6039 C   0  0  0  0  0  0  0  0  0  0  0  0
    3.2574    1.4334    0.3000 C   0  0  0  0  0  0  0  0  0  0  0  0
    1.1698    0.4910   -0.9546 C   0  0  0  0  0  0  0  0  0  0  0  0
   -3.1367   -0.8051   -0.6913 C   0  0  2  0  0  0  0  0  0  0  0  0
   -3.8648    0.5255   -0.7149 C   0  0  0  0  0  0  0  0  0  0  0  0
   -3.6642    1.3880   -1.7999 C   0  0  0  0  0  0  0  0  0  0  0  0
   -4.2505    2.5942   -1.9997 N   0  0  0  0  0  0  0  0  0  0  0  0
   -5.0821    2.9322   -0.9993 C   0  0  0  0  0  0  0  0  0  0  0  0
   -5.7918    4.0999   -0.9431 N   0  0  0  0  0  0  0  0  0  0  0  0
   -6.5379    4.1367    0.2078 C   0  0  0  0  0  0  0  0  0  0  0  0
   -6.2972    2.9689    0.9021 C   0  0  0  0  0  0  0  0  0  0  0  0
   -5.3766    2.1971    0.1419 C   0  0  0  0  0  0  0  0  0  0  0  0
   -4.7464    0.9492    0.2898 C   0  0  0  0  0  0  0  0  0  0  0  0
   -3.6241   -1.9015    0.3101 C   0  0  0  0  0  0  0  0  0  0  0  0
   -4.0770   -4.2210    1.5448 H   0  0  0  0  0  0  0  0  0  0  0  0
   -2.8170   -5.1657    0.7624 H   0  0  0  0  0  0  0  0  0  0  0  0
   -4.1778   -4.5515   -0.1992 H   0  0  0  0  0  0  0  0  0  0  0  0
   -2.4921   -3.3751   -1.7093 H   0  0  0  0  0  0  0  0  0  0  0  0
   -1.2070   -4.0696   -0.7303 H   0  0  0  0  0  0  0  0  0  0  0  0
   -0.0722   -2.0618   -0.4744 H   0  0  0  0  0  0  0  0  0  0  0  0
   -0.7588   -1.8535   -2.0979 H   0  0  0  0  0  0  0  0  0  0  0  0
    0.3382    1.5705    0.7242 H   0  0  0  0  0  0  0  0  0  0  0  0
    1.7011    0.0679    2.0485 H   0  0  0  0  0  0  0  0  0  0  0  0
    1.2816   -1.3482    1.0843 H   0  0  0  0  0  0  0  0  0  0  0  0
    3.3589   -0.8272   -1.7777 H   0  0  0  0  0  0  0  0  0  0  0  0
    2.8765   -1.9133   -0.4850 H   0  0  0  0  0  0  0  0  0  0  0  0
    5.3017   -1.6971   -0.4805 H   0  0  0  0  0  0  0  0  0  0  0  0
    4.6617   -0.9333    0.9833 H   0  0  0  0  0  0  0  0  0  0  0  0
    7.2771    1.3878   -0.5067 H   0  0  0  0  0  0  0  0  0  0  0  0
    7.0949   -1.2667    1.1042 H   0  0  0  0  0  0  0  0  0  0  0  0
    8.5620   -0.2504    0.8009 H   0  0  0  0  0  0  0  0  0  0  0  0
    5.9664    0.6809    2.2290 H   0  0  0  0  0  0  0  0  0  0  0  0
    7.4470    1.6947    1.9481 H   0  0  0  0  0  0  0  0  0  0  0  0
    5.0115    2.4925   -0.3707 H   0  0  0  0  0  0  0  0  0  0  0  0
    4.1560    1.6509   -1.6473 H   0  0  0  0  0  0  0  0  0  0  0  0
    3.5893    1.3564    1.3434 H   0  0  0  0  0  0  0  0  0  0  0  0
    2.6529    2.3455    0.2337 H   0  0  0  0  0  0  0  0  0  0  0  0
    1.1929    1.4316   -1.5153 H   0  0  0  0  0  0  0  0  0  0  0  0
    0.9219   -0.3009   -1.6653 H   0  0  0  0  0  0  0  0  0  0  0  0
   -3.3484   -1.2155   -1.6923 H   0  0  0  0  0  0  0  0  0  0  0  0
   -2.9763    1.1064   -2.5960 H   0  0  0  0  0  0  0  0  0  0  0  0
   -5.7474    4.8133   -1.6553 H   0  0  0  0  0  0  0  0  0  0  0  0
   -7.1668    4.9873    0.4334 H   0  0  0  0  0  0  0  0  0  0  0  0
   -6.7332    2.6998    1.8552 H   0  0  0  0  0  0  0  0  0  0  0  0
   -4.9345    0.3591    1.1792 H   0  0  0  0  0  0  0  0  0  0  0  0
   -4.6457   -2.1841    0.0219 H   0  0  0  0  0  0  0  0  0  0  0  0
   -3.6818   -1.5043    1.3292 H   0  0  0  0  0  0  0  0  0  0  0  0
  1  2  1  0
  2  3  1  0
  3  4  1  0
  4  5  1  0
  5  6  1  0
  6  7  2  0
  6  8  1  0
  8  9  1  0
  9 10  1  0
 10 11  1  0
 11 12  1  0
 12 13  1  0
 13 14  1  0
 14 15  1  0
 15 16  1  0
 13 17  1  0
 17 18  1  0
 10 19  1  0
  5 20  1  0
 20 21  1  0
 21 22  2  0
 22 23  1  0
 23 24  2  0
 24 25  1  0
 25 26  1  0
 26 27  2  0
 27 28  1  0
 28 29  2  0
 20 30  1  0
 30  2  1  0
 19  8  1  0
 29 21  1  0
 18 10  1  0
 28 24  1  0
 16 14  1  0
  1 31  1  0
  1 32  1  0
  1 33  1  0
  3 34  1  0
  3 35  1  0
  4 36  1  0
  4 37  1  0
  8 38  1  0
  9 39  1  0
  9 40  1  0
 11 41  1  0
 11 42  1  0
 12 43  1  0
 12 44  1  0
 14 45  1  0
 15 46  1  0
 15 47  1  0
 16 48  1  0
 16 49  1  0
 17 50  1  0
 17 51  1  0
 18 52  1  0
 18 53  1  0
 19 54  1  0
 19 55  1  0
 20 56  1  6
 22 57  1  0
 25 58  1  0
 26 59  1  0
 27 60  1  0
 29 61  1  0
 30 62  1  0
 30 63  1  0
M  END
$$$$

     RDKit          3D

 63 68  0  0  0  0  0  0  0  0999 V2000
    3.4056   -4.1716   -0.8486 C   0  0  0  0  0  0  0  0  0  0  0  0
    2.8500   -3.0086   -1.5369 N   0  0  0  0  0  0  0  0  0  0  0  0
    1.4194   -2.8391   -1.2122 C   0  0  0  0  0  0  0  0  0  0  0  0
    0.9639   -1.3668   -1.1764 C   0  0  0  0  0  0  0  0  0  0  0  0
    1.6860   -0.6324   -0.1332 N   0  0  0  0  0  0  0  0  0  0  0  0
    1.0706   -0.1566    1.0333 C   0  0  0  0  0  0  0  0  0  0  0  0
    1.6935   -0.1789    2.1077 O   0  0  0  0  0  0  0  0  0  0  0  0
   -0.3348    0.4683    0.9875 C   0  0  0  0  0  0  0  0  0  0  0  0
   -0.9259    1.1459   -0.2665 C   0  0  0  0  0  0  0  0  0  0  0  0
   -2.3259    0.5831    0.1247 C   0  0  0  0  0  0  0  0  0  0  0  0
   -3.0853   -0.0435   -1.0467 C   0  0  0  0  0  0  0  0  0  0  0  0
   -4.4034   -0.6435   -0.5544 C   0  0  0  0  0  0  0  0  0  0  0  0
   -5.2333    0.3752    0.1055 N   0  0  0  0  0  0  0  0  0  0  0  0
   -6.5535   -0.1605    0.4825 C   0  0  0  0  0  0  0  0  0  0  0  0
   -7.7259    0.7788    0.5700 C   0  0  0  0  0  0  0  0  0  0  0  0
   -7.6448   -0.2124   -0.5524 C   0  0  0  0  0  0  0  0  0  0  0  0
   -4.5356    0.9576    1.2626 C   0  0  0  0  0  0  0  0  0  0  0  0
   -3.2140    1.6066    0.8451 C   0  0  0  0  0  0  0  0  0  0  0  0
   -1.5884   -0.4287    1.0569 C   0  0  0  0  0  0  0  0  0  0  0  0
    3.1379   -0.9142   -0.0677 C   0  0  2  0  0  0  0  0  0  0  0  0
    3.9432    0.3715   -0.0006 C   0  0  0  0  0  0  0  0  0  0  0  0
    3.8116    1.3673   -0.9725 C   0  0  0  0  0  0  0  0  0  0  0  0
    4.4950    2.5363   -1.0247 N   0  0  0  0  0  0  0  0  0  0  0  0
    5.3506    2.6811    0.0026 C   0  0  0  0  0  0  0  0  0  0  0  0
    6.1541    3.7715    0.1929 N   0  0  0  0  0  0  0  0  0  0  0  0
    6.9001    3.6071    1.3328 C   0  0  0  0  0  0  0  0  0  0  0  0
    6.5644    2.3870    1.8829 C   0  0  0  0  0  0  0  0  0  0  0  0
    5.5835    1.7914    1.0443 C   0  0  0  0  0  0  0  0  0  0  0  0
    4.8537    0.5918    1.0442 C   0  0  0  0  0  0  0  0  0  0  0  0
    3.6342   -1.7839   -1.2660 C   0  0  0  0  0  0  0  0  0  0  0  0
    4.4337   -4.3581   -1.1779 H   0  0  0  0  0  0  0  0  0  0  0  0
    2.8309   -5.0724   -1.0912 H   0  0  0  0  0  0  0  0  0  0  0  0
    3.4099   -4.0454    0.2399 H   0  0  0  0  0  0  0  0  0  0  0  0
    0.8286   -3.3840   -1.9570 H   0  0  0  0  0  0  0  0  0  0  0  0
    1.1898   -3.2789   -0.2318 H   0  0  0  0  0  0  0  0  0  0  0  0
    1.1620   -0.8735   -2.1350 H   0  0  0  0  0  0  0  0  0  0  0  0
   -0.1097   -1.3481   -1.0076 H   0  0  0  0  0  0  0  0  0  0  0  0
   -0.3803    1.2000    1.8153 H   0  0  0  0  0  0  0  0  0  0  0  0
   -0.5484    0.7967   -1.2310 H   0  0  0  0  0  0  0  0  0  0  0  0
   -0.8430    2.2387   -0.2701 H   0  0  0  0  0  0  0  0  0  0  0  0
   -2.4886   -0.8250   -1.5313 H   0  0  0  0  0  0  0  0  0  0  0  0
   -3.2891    0.7178   -1.8109 H   0  0  0  0  0  0  0  0  0  0  0  0
   -4.2066   -1.4804    0.1283 H   0  0  0  0  0  0  0  0  0  0  0  0
   -4.9369   -1.0519   -1.4212 H   0  0  0  0  0  0  0  0  0  0  0  0
   -6.5344   -0.9756    1.2045 H   0  0  0  0  0  0  0  0  0  0  0  0
   -7.5672    1.8242    0.3320 H   0  0  0  0  0  0  0  0  0  0  0  0
   -8.4550    0.6054    1.3520 H   0  0  0  0  0  0  0  0  0  0  0  0
   -8.3193   -1.0596   -0.5339 H   0  0  0  0  0  0  0  0  0  0  0  0
   -7.4322    0.1672   -1.5450 H   0  0  0  0  0  0  0  0  0  0  0  0
   -5.1635    1.7299    1.7232 H   0  0  0  0  0  0  0  0  0  0  0  0
   -4.3562    0.1905    2.0268 H   0  0  0  0  0  0  0  0  0  0  0  0
   -2.7131    2.0133    1.7315 H   0  0  0  0  0  0  0  0  0  0  0  0
   -3.4180    2.4556    0.1795 H   0  0  0  0  0  0  0  0  0  0  0  0
   -1.4624   -1.4337    0.6418 H   0  0  0  0  0  0  0  0  0  0  0  0
   -2.0062   -0.5431    2.0627 H   0  0  0  0  0  0  0  0  0  0  0  0
    3.3083   -1.4980    0.8474 H   0  0  0  0  0  0  0  0  0  0  0  0
    3.1043    1.2435   -1.7906 H   0  0  0  0  0  0  0  0  0  0  0  0
    6.1703    4.5666   -0.4282 H   0  0  0  0  0  0  0  0  0  0  0  0
    7.5974    4.3694    1.6531 H   0  0  0  0  0  0  0  0  0  0  0  0
    6.9781    1.9692    2.7914 H   0  0  0  0  0  0  0  0  0  0  0  0
    4.9842   -0.1323    1.8423 H   0  0  0  0  0  0  0  0  0  0  0  0
    4.7000   -2.0204   -1.1448 H   0  0  0  0  0  0  0  0  0  0  0  0
    3.5860   -1.1871   -2.1872 H   0  0  0  0  0  0  0  0  0  0  0  0
  1  2  1  0
  2  3  1  0
  3  4  1  0
  4  5  1  0
  5  6  1  0
  6  7  2  0
  6  8  1  0
  8  9  1  0
  9 10  1  0
 10 11  1  0
 11 12  1  0
 12 13  1  0
 13 14  1  0
 14 15  1  0
 15 16  1  0
 13 17  1  0
 17 18  1  0
 10 19  1  0
  5 20  1  0
 20 21  1  0
 21 22  2  0
 22 23  1  0
 23 24  2  0
 24 25  1  0
 25 26  1  0
 26 27  2  0
 27 28  1  0
 28 29  2  0
 20 30  1  0
 30  2  1  0
 19  8  1  0
 29 21  1  0
 18 10  1  0
 28 24  1  0
 16 14  1  0
  1 31  1  0
  1 32  1  0
  1 33  1  0
  3 34  1  0
  3 35  1  0
  4 36  1  0
  4 37  1  0
  8 38  1  0
  9 39  1  0
  9 40  1  0
 11 41  1  0
 11 42  1  0
 12 43  1  0
 12 44  1  0
 14 45  1  0
 15 46  1  0
 15 47  1  0
 16 48  1  0
 16 49  1  0
 17 50  1  0
 17 51  1  0
 18 52  1  0
 18 53  1  0
 19 54  1  0
 19 55  1  0
 20 56  1  1
 22 57  1  0
 25 58  1  0
 26 59  1  0
 27 60  1  0
 29 61  1  0
 30 62  1  0
 30 63  1  0
M  END
$$$$

     RDKit          3D

 63 68  0  0  0  0  0  0  0  0999 V2000
   -3.2208    4.8549   -2.0751 C   0  0  0  0  0  0  0  0  0  0  0  0
   -2.7468    3.8228   -1.1613 N   0  0  0  0  0  0  0  0  0  0  0  0
   -1.2928    3.6019   -1.2822 C   0  0  0  0  0  0  0  0  0  0  0  0
   -0.8300    2.1327   -1.1356 C   0  0  0  0  0  0  0  0  0  0  0  0
   -1.5980    1.4092   -0.1233 N   0  0  0  0  0  0  0  0  0  0  0  0
   -1.0582    0.8450    1.0353 C   0  0  0  0  0  0  0  0  0  0  0  0
   -1.7947    0.4622    1.9535 O   0  0  0  0  0  0  0  0  0  0  0  0
    0.4852    0.7083    1.1149 C   0  0  0  0  0  0  0  0  0  0  0  0
    1.1673   -0.3049    0.1540 C   0  0  0  0  0  0  0  0  0  0  0  0
    2.1585   -0.6741    1.2993 C   0  0  0  0  0  0  0  0  0  0  0  0
    3.4574    0.1539    1.2660 C   0  0  0  0  0  0  0  0  0  0  0  0
    4.5620   -0.5694    2.0380 C   0  0  0  0  0  0  0  0  0  0  0  0
    4.9024   -1.8760    1.4570 N   0  0  0  0  0  0  0  0  0  0  0  0
    6.1302   -1.9962    0.6471 C   0  0  0  0  0  0  0  0  0  0  0  0
    7.4330   -1.3816    1.0770 C   0  0  0  0  0  0  0  0  0  0  0  0
    6.7169   -0.8572   -0.1375 C   0  0  0  0  0  0  0  0  0  0  0  0
    3.7576   -2.5363    0.8033 C   0  0  0  0  0  0  0  0  0  0  0  0
    2.4291   -2.1757    1.4643 C   0  0  0  0  0  0  0  0  0  0  0  0
    1.0679   -0.1459    2.2774 C   0  0  0  0  0  0  0  0  0  0  0  0
   -3.0663    1.5080   -0.2414 C   0  0  2  0  0  0  0  0  0  0  0  0
   -3.6978    0.1607   -0.5441 C   0  0  0  0  0  0  0  0  0  0  0  0
   -3.3628   -0.5712   -1.6860 C   0  0  0  0  0  0  0  0  0  0  0  0
   -3.8831   -1.7653   -2.0617 N   0  0  0  0  0  0  0  0  0  0  0  0
   -4.7900   -2.2317   -1.1851 C   0  0  0  0  0  0  0  0  0  0  0  0
   -5.4574   -3.4182   -1.3181 N   0  0  0  0  0  0  0  0  0  0  0  0
   -6.3044   -3.5983   -0.2538 C   0  0  0  0  0  0  0  0  0  0  0  0
   -6.1734   -2.5049    0.5776 C   0  0  0  0  0  0  0  0  0  0  0  0
   -5.2164   -1.6315   -0.0067 C   0  0  0  0  0  0  0  0  0  0  0  0
   -4.6504   -0.3907    0.3270 C   0  0  0  0  0  0  0  0  0  0  0  0
   -3.5089    2.5700   -1.2984 C   0  0  0  0  0  0  0  0  0  0  0  0
   -4.2809    5.0680   -1.8997 H   0  0  0  0  0  0  0  0  0  0  0  0
   -3.0974    4.5636   -3.1243 H   0  0  0  0  0  0  0  0  0  0  0  0
   -2.6790    5.7928   -1.9099 H   0  0  0  0  0  0  0  0  0  0  0  0
   -0.8127    4.1981   -0.4968 H   0  0  0  0  0  0  0  0  0  0  0  0
   -0.9053    3.9734   -2.2397 H   0  0  0  0  0  0  0  0  0  0  0  0
    0.2407    2.1191   -0.9277 H   0  0  0  0  0  0  0  0  0  0  0  0
   -0.9786    1.6040   -2.0845 H   0  0  0  0  0  0  0  0  0  0  0  0
    0.9672    1.6968    1.0998 H   0  0  0  0  0  0  0  0  0  0  0  0
    1.6150    0.1274   -0.7459 H   0  0  0  0  0  0  0  0  0  0  0  0
    0.5040   -1.1208   -0.1598 H   0  0  0  0  0  0  0  0  0  0  0  0
    3.7838    0.3080    0.2297 H   0  0  0  0  0  0  0  0  0  0  0  0
    3.3017    1.1507    1.6948 H   0  0  0  0  0  0  0  0  0  0  0  0
    5.4303    0.0891    2.1333 H   0  0  0  0  0  0  0  0  0  0  0  0
    4.2221   -0.7407    3.0678 H   0  0  0  0  0  0  0  0  0  0  0  0
    6.2436   -2.9861    0.2011 H   0  0  0  0  0  0  0  0  0  0  0  0
    8.3356   -1.9626    0.9235 H   0  0  0  0  0  0  0  0  0  0  0  0
    7.4628   -0.7701    1.9693 H   0  0  0  0  0  0  0  0  0  0  0  0
    6.2703    0.1262   -0.0779 H   0  0  0  0  0  0  0  0  0  0  0  0
    7.1376   -1.0840   -1.1107 H   0  0  0  0  0  0  0  0  0  0  0  0
    3.8996   -3.6222    0.8523 H   0  0  0  0  0  0  0  0  0  0  0  0
    3.7148   -2.2594   -0.2587 H   0  0  0  0  0  0  0  0  0  0  0  0
    2.4701   -2.4413    2.5290 H   0  0  0  0  0  0  0  0  0  0  0  0
    1.6203   -2.7736    1.0286 H   0  0  0  0  0  0  0  0  0  0  0  0
    1.4313    0.4233    3.1386 H   0  0  0  0  0  0  0  0  0  0  0  0
    0.3849   -0.9212    2.6471 H   0  0  0  0  0  0  0  0  0  0  0  0
   -3.4297    1.8591    0.7347 H   0  0  0  0  0  0  0  0  0  0  0  0
   -2.6158   -0.1937   -2.3803 H   0  0  0  0  0  0  0  0  0  0  0  0
   -5.3218   -4.0500   -2.0930 H   0  0  0  0  0  0  0  0  0  0  0  0
   -6.9193   -4.4850   -0.1788 H   0  0  0  0  0  0  0  0  0  0  0  0
   -6.7061   -2.3507    1.5069 H   0  0  0  0  0  0  0  0  0  0  0  0
   -4.9340    0.1149    1.2451 H   0  0  0  0  0  0  0  0  0  0  0  0
   -4.5806    2.7652   -1.1613 H   0  0  0  0  0  0  0  0  0  0  0  0
   -3.3899    2.1814   -2.3190 H   0  0  0  0  0  0  0  0  0  0  0  0
  1  2  1  0
  2  3  1  0
  3  4  1  0
  4  5  1  0
  5  6  1  0
  6  7  2  0
  6  8  1  0
  8  9  1  0
  9 10  1  0
 10 11  1  0
 11 12  1  0
 12 13  1  0
 13 14  1  0
 14 15  1  0
 15 16  1  0
 13 17  1  0
 17 18  1  0
 10 19  1  0
  5 20  1  0
 20 21  1  0
 21 22  2  0
 22 23  1  0
 23 24  2  0
 24 25  1  0
 25 26  1  0
 26 27  2  0
 27 28  1  0
 28 29  2  0
 20 30  1  0
 30  2  1  0
 19  8  1  0
 29 21  1  0
 18 10  1  0
 28 24  1  0
 16 14  1  0
  1 31  1  0
  1 32  1  0
  1 33  1  0
  3 34  1  0
  3 35  1  0
  4 36  1  0
  4 37  1  0
  8 38  1  0
  9 39  1  0
  9 40  1  0
 11 41  1  0
 11 42  1  0
 12 43  1  0
 12 44  1  0
 14 45  1  0
 15 46  1  0
 15 47  1  0
 16 48  1  0
 16 49  1  0
 17 50  1  0
 17 51  1  0
 18 52  1  0
 18 53  1  0
 19 54  1  0
 19 55  1  0
 20 56  1  1
 22 57  1  0
 25 58  1  0
 26 59  1  0
 27 60  1  0
 29 61  1  0
 30 62  1  0
 30 63  1  0
M  END
$$$$
