
     RDKit          3D

100107  0  0  0  0  0  0  0  0999 V2000
   -6.3659    3.4402   -4.0217 C   0  0  0  0  0  0  0  0  0  0  0  0
   -7.0885    2.6980   -2.9922 N   0  0  0  0  0  0  0  0  0  0  0  0
   -7.2349    1.2858   -3.3772 C   0  0  0  0  0  0  0  0  0  0  0  0
   -7.7520    0.4118   -2.2692 C   0  0  0  0  0  0  0  0  0  0  0  0
   -7.7763    0.8018   -0.9826 C   0  0  0  0  0  0  0  0  0  0  0  0
   -8.3117   -0.0764    0.0722 C   0  0  0  0  0  0  0  0  0  0  0  0
   -9.5385    0.2908    0.6542 C   0  0  0  0  0  0  0  0  0  0  0  0
  -10.1265   -0.4997    1.6361 C   0  0  0  0  0  0  0  0  0  0  0  0
   -9.4963   -1.6676    2.0393 C   0  0  0  0  0  0  0  0  0  0  0  0
   -8.2765   -2.0361    1.4652 C   0  0  0  0  0  0  0  0  0  0  0  0
   -7.6318   -1.2562    0.4772 C   0  0  0  0  0  0  0  0  0  0  0  0
   -6.2284   -1.7107   -0.1427 C   0  0  0  0  0  0  0  0  0  0  0  0
   -5.0247   -0.7259   -0.0661 C   0  0  0  0  0  0  0  0  0  0  0  0
   -4.0763   -1.9553    0.0917 C   0  0  0  0  0  0  0  0  0  0  0  0
   -3.5406   -2.4856   -1.2533 C   0  0  0  0  0  0  0  0  0  0  0  0
   -2.2303   -3.2420   -1.0590 C   0  0  0  0  0  0  0  0  0  0  0  0
   -1.2084   -2.3795   -0.4639 N   0  0  0  0  0  0  0  0  0  0  0  0
    0.1295   -2.5656   -0.8253 C   0  0  0  0  0  0  0  0  0  0  0  0
    0.4540   -3.4858   -1.5863 O   0  0  0  0  0  0  0  0  0  0  0  0
    1.1688   -1.5642   -0.2420 C   0  0  0  0  0  0  0  0  0  0  0  0
    1.8677   -1.9662    1.0840 C   0  0  0  0  0  0  0  0  0  0  0  0
    3.1892   -1.3398    0.5413 C   0  0  0  0  0  0  0  0  0  0  0  0
    3.3707    0.1312    0.9651 C   0  0  0  0  0  0  0  0  0  0  0  0
    4.8220    0.5733    0.7763 C   0  0  0  0  0  0  0  0  0  0  0  0
    5.7242   -0.2697    1.5750 N   0  0  0  0  0  0  0  0  0  0  0  0
    6.6868    0.3795    2.3581 C   0  0  0  0  0  0  0  0  0  0  0  0
    6.7694    0.1230    3.7420 C   0  0  0  0  0  0  0  0  0  0  0  0
    7.6913    0.7756    4.5664 C   0  0  0  0  0  0  0  0  0  0  0  0
    8.5710    1.7020    4.0268 C   0  0  0  0  0  0  0  0  0  0  0  0
    8.5319    1.9687    2.6612 C   0  0  0  0  0  0  0  0  0  0  0  0
    7.6095    1.3184    1.8166 C   0  0  0  0  0  0  0  0  0  0  0  0
    7.7267    1.6161    0.3712 C   0  0  0  0  0  0  0  0  0  0  0  0
    8.0751    0.6607   -0.5093 C   0  0  0  0  0  0  0  0  0  0  0  0
    8.2237    0.9150   -1.9813 C   0  0  0  0  0  0  0  0  0  0  0  0
    8.2854    2.3434   -2.3314 N   0  0  0  0  0  0  0  0  0  0  0  0
    8.1680    2.5227   -3.7755 C   0  0  0  0  0  0  0  0  0  0  0  0
    7.2505    3.1006   -1.6146 C   0  0  0  0  0  0  0  0  0  0  0  0
    7.4710    3.0266   -0.0929 C   0  0  0  0  0  0  0  0  0  0  0  0
    5.2561   -1.6095    1.9411 C   0  0  0  0  0  0  0  0  0  0  0  0
    4.4482   -2.1881    0.7815 C   0  0  0  0  0  0  0  0  0  0  0  0
    2.5861   -1.5419   -0.8812 C   0  0  0  0  0  0  0  0  0  0  0  0
   -1.6620   -1.3777    0.5010 C   0  0  0  0  0  0  0  0  0  0  0  0
   -2.9794   -1.7828    1.1519 C   0  0  0  0  0  0  0  0  0  0  0  0
   -5.3251   -2.7099    0.6411 C   0  0  0  0  0  0  0  0  0  0  0  0
   -7.2745    2.1645   -0.5797 C   0  0  0  0  0  0  0  0  0  0  0  0
   -6.4265    2.8177   -1.6860 C   0  0  0  0  0  0  0  0  0  0  0  0
   -6.8856    3.3684   -4.9837 H   0  0  0  0  0  0  0  0  0  0  0  0
   -5.3405    3.0762   -4.1549 H   0  0  0  0  0  0  0  0  0  0  0  0
   -6.3219    4.5050   -3.7678 H   0  0  0  0  0  0  0  0  0  0  0  0
   -6.2791    0.8657   -3.7162 H   0  0  0  0  0  0  0  0  0  0  0  0
   -7.9379    1.2239   -4.2163 H   0  0  0  0  0  0  0  0  0  0  0  0
   -8.1143   -0.5713   -2.5565 H   0  0  0  0  0  0  0  0  0  0  0  0
  -10.0485    1.1941    0.3270 H   0  0  0  0  0  0  0  0  0  0  0  0
  -11.0768   -0.2091    2.0747 H   0  0  0  0  0  0  0  0  0  0  0  0
   -9.9506   -2.2990    2.7984 H   0  0  0  0  0  0  0  0  0  0  0  0
   -7.8161   -2.9638    1.7992 H   0  0  0  0  0  0  0  0  0  0  0  0
   -6.3871   -2.0685   -1.1723 H   0  0  0  0  0  0  0  0  0  0  0  0
   -4.8603   -0.1098   -0.9549 H   0  0  0  0  0  0  0  0  0  0  0  0
   -5.0566   -0.0605    0.8058 H   0  0  0  0  0  0  0  0  0  0  0  0
   -3.3555   -1.6446   -1.9346 H   0  0  0  0  0  0  0  0  0  0  0  0
   -4.2724   -3.1364   -1.7450 H   0  0  0  0  0  0  0  0  0  0  0  0
   -2.3689   -4.0963   -0.3854 H   0  0  0  0  0  0  0  0  0  0  0  0
   -1.8845   -3.6322   -2.0219 H   0  0  0  0  0  0  0  0  0  0  0  0
    0.7672   -0.5413   -0.2061 H   0  0  0  0  0  0  0  0  0  0  0  0
    1.4544   -1.5075    1.9873 H   0  0  0  0  0  0  0  0  0  0  0  0
    1.9048   -3.0512    1.2448 H   0  0  0  0  0  0  0  0  0  0  0  0
    2.7070    0.7942    0.3983 H   0  0  0  0  0  0  0  0  0  0  0  0
    3.1024    0.2483    2.0235 H   0  0  0  0  0  0  0  0  0  0  0  0
    5.0939    0.4905   -0.2822 H   0  0  0  0  0  0  0  0  0  0  0  0
    4.8906    1.6300    1.0624 H   0  0  0  0  0  0  0  0  0  0  0  0
    6.0891   -0.5794    4.2144 H   0  0  0  0  0  0  0  0  0  0  0  0
    7.7157    0.5555    5.6306 H   0  0  0  0  0  0  0  0  0  0  0  0
    9.2944    2.2073    4.6604 H   0  0  0  0  0  0  0  0  0  0  0  0
    9.2514    2.6709    2.2455 H   0  0  0  0  0  0  0  0  0  0  0  0
    8.2447   -0.3586   -0.1706 H   0  0  0  0  0  0  0  0  0  0  0  0
    9.1490    0.4340   -2.3203 H   0  0  0  0  0  0  0  0  0  0  0  0
    7.3880    0.4188   -2.4923 H   0  0  0  0  0  0  0  0  0  0  0  0
    7.2059    2.1681   -4.1616 H   0  0  0  0  0  0  0  0  0  0  0  0
    8.9677    1.9855   -4.2966 H   0  0  0  0  0  0  0  0  0  0  0  0
    8.2745    3.5799   -4.0412 H   0  0  0  0  0  0  0  0  0  0  0  0
    7.2815    4.1564   -1.9095 H   0  0  0  0  0  0  0  0  0  0  0  0
    6.2492    2.7244   -1.8663 H   0  0  0  0  0  0  0  0  0  0  0  0
    6.5859    3.4394    0.4060 H   0  0  0  0  0  0  0  0  0  0  0  0
    8.3261    3.6587    0.1794 H   0  0  0  0  0  0  0  0  0  0  0  0
    6.1128   -2.2655    2.1376 H   0  0  0  0  0  0  0  0  0  0  0  0
    4.6323   -1.5754    2.8428 H   0  0  0  0  0  0  0  0  0  0  0  0
    4.1898   -3.2330    0.9872 H   0  0  0  0  0  0  0  0  0  0  0  0
    5.0731   -2.1894   -0.1215 H   0  0  0  0  0  0  0  0  0  0  0  0
    2.8769   -2.4849   -1.3613 H   0  0  0  0  0  0  0  0  0  0  0  0
    2.7637   -0.7313   -1.5947 H   0  0  0  0  0  0  0  0  0  0  0  0
   -0.9030   -1.2383    1.2752 H   0  0  0  0  0  0  0  0  0  0  0  0
   -1.7720   -0.4314   -0.0414 H   0  0  0  0  0  0  0  0  0  0  0  0
   -2.8317   -2.7310    1.6867 H   0  0  0  0  0  0  0  0  0  0  0  0
   -3.2681   -1.0413    1.9059 H   0  0  0  0  0  0  0  0  0  0  0  0
   -5.4281   -2.6519    1.7320 H   0  0  0  0  0  0  0  0  0  0  0  0
   -5.4212   -3.7596    0.3460 H   0  0  0  0  0  0  0  0  0  0  0  0
   -8.1317    2.8102   -0.3505 H   0  0  0  0  0  0  0  0  0  0  0  0
   -6.6654    2.0934    0.3295 H   0  0  0  0  0  0  0  0  0  0  0  0
   -6.2873    3.8743   -1.4259 H   0  0  0  0  0  0  0  0  0  0  0  0
   -5.4292    2.3582   -1.7122 H   0  0  0  0  0  0  0  0  0  0  0  0
  1  2  1  0
  2  3  1  0
  3  4  1  0
  4  5  2  0
  5  6  1  0
  6  7  2  0
  7  8  1  0
  8  9  2  0
  9 10  1  0
 10 11  2  0
 11 12  1  0
 12 13  1  0
 13 14  1  0
 14 15  1  0
 15 16  1  0
 16 17  1  0
 17 18  1  0
 18 19  2  0
 18 20  1  0
 20 21  1  0
 21 22  1  0
 22 23  1  0
 23 24  1  0
 24 25  1  0
 25 26  1  0
 26 27  2  0
 27 28  1  0
 28 29  2  0
 29 30  1  0
 30 31  2  0
 31 32  1  0
 32 33  2  0
 33 34  1  0
 34 35  1  0
 35 36  1  0
 35 37  1  0
 37 38  1  0
 25 39  1  0
 39 40  1  0
 22 41  1  0
 17 42  1  0
 42 43  1  0
 14 44  1  0
  5 45  1  0
 45 46  1  0
 46  2  1  0
 11  6  1  0
 44 12  1  0
 43 14  1  0
 41 20  1  0
 40 22  1  0
 31 26  1  0
 38 32  1  0
  1 47  1  0
  1 48  1  0
  1 49  1  0
  3 50  1  0
  3 51  1  0
  4 52  1  0
  7 53  1  0
  8 54  1  0
  9 55  1  0
 10 56  1  0
 12 57  1  0
 13 58  1  0
 13 59  1  0
 15 60  1  0
 15 61  1  0
 16 62  1  0
 16 63  1  0
 20 64  1  0
 21 65  1  0
 21 66  1  0
 23 67  1  0
 23 68  1  0
 24 69  1  0
 24 70  1  0
 27 71  1  0
 28 72  1  0
 29 73  1  0
 30 74  1  0
 33 75  1  0
 34 76  1  0
 34 77  1  0
 36 78  1  0
 36 79  1  0
 36 80  1  0
 37 81  1  0
 37 82  1  0
 38 83  1  0
 38 84  1  0
 39 85  1  0
 39 86  1  0
 40 87  1  0
 40 88  1  0
 41 89  1  0
 41 90  1  0
 42 91  1  0
 42 92  1  0
 43 93  1  0
 43 94  1  0
 44 95  1  0
 44 96  1  0
 45 97  1  0
 45 98  1  0
 46 99  1  0
 46100  1  0
M  END
$$$$

     RDKit          3D

100107  0  0  0  0  0  0  0  0999 V2000
   -9.7826    2.9746   -1.1817 C   0  0  0  0  0  0  0  0  0  0  0  0
   -8.3876    2.6037   -1.4159 N   0  0  0  0  0  0  0  0  0  0  0  0
   -8.2829    1.3446   -2.1696 C   0  0  0  0  0  0  0  0  0  0  0  0
   -8.3932    0.0922   -1.3447 C   0  0  0  0  0  0  0  0  0  0  0  0
   -8.2882    0.0875   -0.0039 C   0  0  0  0  0  0  0  0  0  0  0  0
   -8.4084   -1.1669    0.7557 C   0  0  0  0  0  0  0  0  0  0  0  0
   -9.7083   -1.6523    0.9892 C   0  0  0  0  0  0  0  0  0  0  0  0
   -9.9115   -2.8202    1.7164 C   0  0  0  0  0  0  0  0  0  0  0  0
   -8.8178   -3.5092    2.2189 C   0  0  0  0  0  0  0  0  0  0  0  0
   -7.5247   -3.0327    1.9834 C   0  0  0  0  0  0  0  0  0  0  0  0
   -7.2665   -1.8603    1.2353 C   0  0  0  0  0  0  0  0  0  0  0  0
   -5.7674   -1.3582    0.9885 C   0  0  0  0  0  0  0  0  0  0  0  0
   -4.5867   -2.3668    1.1212 C   0  0  0  0  0  0  0  0  0  0  0  0
   -3.8554   -1.6082   -0.0275 C   0  0  0  0  0  0  0  0  0  0  0  0
   -2.9490   -0.4507    0.4346 C   0  0  0  0  0  0  0  0  0  0  0  0
   -1.4801   -0.8607    0.3990 C   0  0  0  0  0  0  0  0  0  0  0  0
   -1.0674   -1.2660   -0.9445 N   0  0  0  0  0  0  0  0  0  0  0  0
    0.2382   -1.1526   -1.4315 C   0  0  0  0  0  0  0  0  0  0  0  0
    0.4979   -1.4355   -2.6079 O   0  0  0  0  0  0  0  0  0  0  0  0
    1.3317   -0.6761   -0.4322 C   0  0  0  0  0  0  0  0  0  0  0  0
    2.8170   -0.8799   -0.8419 C   0  0  0  0  0  0  0  0  0  0  0  0
    3.1470    0.5014   -0.1956 C   0  0  0  0  0  0  0  0  0  0  0  0
    4.0715    1.3983   -1.0312 C   0  0  0  0  0  0  0  0  0  0  0  0
    5.5230    1.2234   -0.5876 C   0  0  0  0  0  0  0  0  0  0  0  0
    5.6762    1.5710    0.8342 N   0  0  0  0  0  0  0  0  0  0  0  0
    6.7625    2.3921    1.1662 C   0  0  0  0  0  0  0  0  0  0  0  0
    6.5500    3.6154    1.8349 C   0  0  0  0  0  0  0  0  0  0  0  0
    7.6000    4.4770    2.1649 C   0  0  0  0  0  0  0  0  0  0  0  0
    8.9038    4.1332    1.8438 C   0  0  0  0  0  0  0  0  0  0  0  0
    9.1548    2.9257    1.1975 C   0  0  0  0  0  0  0  0  0  0  0  0
    8.1070    2.0472    0.8505 C   0  0  0  0  0  0  0  0  0  0  0  0
    8.5085    0.7545    0.2452 C   0  0  0  0  0  0  0  0  0  0  0  0
    8.2938   -0.4037    0.8956 C   0  0  0  0  0  0  0  0  0  0  0  0
    8.7251   -1.7441    0.3716 C   0  0  0  0  0  0  0  0  0  0  0  0
    9.1759   -1.7689   -1.0285 N   0  0  0  0  0  0  0  0  0  0  0  0
    8.0600   -1.9375   -1.9557 C   0  0  0  0  0  0  0  0  0  0  0  0
    9.9709   -0.5694   -1.3361 C   0  0  0  0  0  0  0  0  0  0  0  0
    9.2490    0.7658   -1.0688 C   0  0  0  0  0  0  0  0  0  0  0  0
    4.4661    1.5852    1.6595 C   0  0  0  0  0  0  0  0  0  0  0  0
    3.5901    0.3925    1.2778 C   0  0  0  0  0  0  0  0  0  0  0  0
    1.6405    0.8445   -0.3959 C   0  0  0  0  0  0  0  0  0  0  0  0
   -2.1019   -1.8171   -1.8213 C   0  0  0  0  0  0  0  0  0  0  0  0
   -3.1618   -2.5588   -1.0154 C   0  0  0  0  0  0  0  0  0  0  0  0
   -5.2752   -1.1352   -0.4710 C   0  0  0  0  0  0  0  0  0  0  0  0
   -8.0446    1.3592    0.7648 C   0  0  0  0  0  0  0  0  0  0  0  0
   -7.6236    2.5167   -0.1602 C   0  0  0  0  0  0  0  0  0  0  0  0
  -10.3457    2.2188   -0.6241 H   0  0  0  0  0  0  0  0  0  0  0  0
   -9.8402    3.9201   -0.6308 H   0  0  0  0  0  0  0  0  0  0  0  0
  -10.2952    3.1416   -2.1358 H   0  0  0  0  0  0  0  0  0  0  0  0
   -9.0329    1.3195   -2.9699 H   0  0  0  0  0  0  0  0  0  0  0  0
   -7.3098    1.3252   -2.6767 H   0  0  0  0  0  0  0  0  0  0  0  0
   -8.5445   -0.8356   -1.8905 H   0  0  0  0  0  0  0  0  0  0  0  0
  -10.5701   -1.1099    0.6058 H   0  0  0  0  0  0  0  0  0  0  0  0
  -10.9192   -3.1851    1.8939 H   0  0  0  0  0  0  0  0  0  0  0  0
   -8.9640   -4.4188    2.7956 H   0  0  0  0  0  0  0  0  0  0  0  0
   -6.6916   -3.5963    2.3995 H   0  0  0  0  0  0  0  0  0  0  0  0
   -5.5798   -0.4701    1.6117 H   0  0  0  0  0  0  0  0  0  0  0  0
   -4.0810   -2.3712    2.0917 H   0  0  0  0  0  0  0  0  0  0  0  0
   -4.8468   -3.4023    0.8669 H   0  0  0  0  0  0  0  0  0  0  0  0
   -3.0846    0.4115   -0.2316 H   0  0  0  0  0  0  0  0  0  0  0  0
   -3.2130   -0.1139    1.4435 H   0  0  0  0  0  0  0  0  0  0  0  0
   -0.8642   -0.0260    0.7435 H   0  0  0  0  0  0  0  0  0  0  0  0
   -1.2990   -1.7124    1.0649 H   0  0  0  0  0  0  0  0  0  0  0  0
    1.1710   -1.0921    0.5730 H   0  0  0  0  0  0  0  0  0  0  0  0
    2.9824   -0.9226   -1.9254 H   0  0  0  0  0  0  0  0  0  0  0  0
    3.3047   -1.7524   -0.3962 H   0  0  0  0  0  0  0  0  0  0  0  0
    3.9785    1.1747   -2.1004 H   0  0  0  0  0  0  0  0  0  0  0  0
    3.7819    2.4503   -0.9077 H   0  0  0  0  0  0  0  0  0  0  0  0
    6.1546    1.8476   -1.2314 H   0  0  0  0  0  0  0  0  0  0  0  0
    5.8174    0.1788   -0.7294 H   0  0  0  0  0  0  0  0  0  0  0  0
    5.5446    3.9365    2.0899 H   0  0  0  0  0  0  0  0  0  0  0  0
    7.3917    5.4151    2.6720 H   0  0  0  0  0  0  0  0  0  0  0  0
    9.7259    4.7934    2.1053 H   0  0  0  0  0  0  0  0  0  0  0  0
   10.1875    2.6555    0.9885 H   0  0  0  0  0  0  0  0  0  0  0  0
    7.7958   -0.4010    1.8621 H   0  0  0  0  0  0  0  0  0  0  0  0
    9.5545   -2.0918    1.0007 H   0  0  0  0  0  0  0  0  0  0  0  0
    7.9167   -2.4699    0.5245 H   0  0  0  0  0  0  0  0  0  0  0  0
    7.3229   -1.1320   -1.8985 H   0  0  0  0  0  0  0  0  0  0  0  0
    7.5433   -2.8843   -1.7623 H   0  0  0  0  0  0  0  0  0  0  0  0
    8.4256   -1.9913   -2.9873 H   0  0  0  0  0  0  0  0  0  0  0  0
   10.8883   -0.6034   -0.7323 H   0  0  0  0  0  0  0  0  0  0  0  0
   10.3112   -0.5990   -2.3788 H   0  0  0  0  0  0  0  0  0  0  0  0
    8.5337    0.9686   -1.8753 H   0  0  0  0  0  0  0  0  0  0  0  0
    9.9971    1.5658   -1.1001 H   0  0  0  0  0  0  0  0  0  0  0  0
    3.9037    2.5166    1.5205 H   0  0  0  0  0  0  0  0  0  0  0  0
    4.7324    1.4997    2.7199 H   0  0  0  0  0  0  0  0  0  0  0  0
    2.7265    0.3359    1.9502 H   0  0  0  0  0  0  0  0  0  0  0  0
    4.1690   -0.5285    1.4263 H   0  0  0  0  0  0  0  0  0  0  0  0
    1.4131    1.3591   -1.3382 H   0  0  0  0  0  0  0  0  0  0  0  0
    1.1655    1.4025    0.4167 H   0  0  0  0  0  0  0  0  0  0  0  0
   -1.6523   -2.4957   -2.5538 H   0  0  0  0  0  0  0  0  0  0  0  0
   -2.5445   -0.9780   -2.3709 H   0  0  0  0  0  0  0  0  0  0  0  0
   -3.8862   -3.0280   -1.6906 H   0  0  0  0  0  0  0  0  0  0  0  0
   -2.6748   -3.3728   -0.4621 H   0  0  0  0  0  0  0  0  0  0  0  0
   -5.3380   -0.1064   -0.8380 H   0  0  0  0  0  0  0  0  0  0  0  0
   -5.7644   -1.7888   -1.2041 H   0  0  0  0  0  0  0  0  0  0  0  0
   -8.9622    1.6303    1.3019 H   0  0  0  0  0  0  0  0  0  0  0  0
   -7.2629    1.2182    1.5195 H   0  0  0  0  0  0  0  0  0  0  0  0
   -6.5607    2.4004   -0.4133 H   0  0  0  0  0  0  0  0  0  0  0  0
   -7.6876    3.4653    0.3874 H   0  0  0  0  0  0  0  0  0  0  0  0
  1  2  1  0
  2  3  1  0
  3  4  1  0
  4  5  2  0
  5  6  1  0
  6  7  2  0
  7  8  1  0
  8  9  2  0
  9 10  1  0
 10 11  2  0
 11 12  1  0
 12 13  1  0
 13 14  1  0
 14 15  1  0
 15 16  1  0
 16 17  1  0
 17 18  1  0
 18 19  2  0
 18 20  1  0
 20 21  1  0
 21 22  1  0
 22 23  1  0
 23 24  1  0
 24 25  1  0
 25 26  1  0
 26 27  2  0
 27 28  1  0
 28 29  2  0
 29 30  1  0
 30 31  2  0
 31 32  1  0
 32 33  2  0
 33 34  1  0
 34 35  1  0
 35 36  1  0
 35 37  1  0
 37 38  1  0
 25 39  1  0
 39 40  1  0
 22 41  1  0
 17 42  1  0
 42 43  1  0
 14 44  1  0
  5 45  1  0
 45 46  1  0
 46  2  1  0
 11  6  1  0
 44 12  1  0
 43 14  1  0
 41 20  1  0
 40 22  1  0
 31 26  1  0
 38 32  1  0
  1 47  1  0
  1 48  1  0
  1 49  1  0
  3 50  1  0
  3 51  1  0
  4 52  1  0
  7 53  1  0
  8 54  1  0
  9 55  1  0
 10 56  1  0
 12 57  1  0
 13 58  1  0
 13 59  1  0
 15 60  1  0
 15 61  1  0
 16 62  1  0
 16 63  1  0
 20 64  1  0
 21 65  1  0
 21 66  1  0
 23 67  1  0
 23 68  1  0
 24 69  1  0
 24 70  1  0
 27 71  1  0
 28 72  1  0
 29 73  1  0
 30 74  1  0
 33 75  1  0
 34 76  1  0
 34 77  1  0
 36 78  1  0
 36 79  1  0
 36 80  1  0
 37 81  1  0
 37 82  1  0
 38 83  1  0
 38 84  1  0
 39 85  1  0
 39 86  1  0
 40 87  1  0
 40 88  1  0
 41 89  1  0
 41 90  1  0
 42 91  1  0
 42 92  1  0
 43 93  1  0
 43 94  1  0
 44 95  1  0
 44 96  1  0
 45 97  1  0
 45 98  1  0
 46 99  1  0
 46100  1  0
M  END
$$$$

     RDKit          3D

100107  0  0  0  0  0  0  0  0999 V2000
    7.2456    4.4378   -0.9116 C   0  0  0  0  0  0  0  0  0  0  0  0
    6.0947    3.6239   -0.5212 N   0  0  0  0  0  0  0  0  0  0  0  0
    6.4538    2.6458    0.5169 C   0  0  0  0  0  0  0  0  0  0  0  0
    7.0750    1.3723    0.0137 C   0  0  0  0  0  0  0  0  0  0  0  0
    7.0399    0.9996   -1.2781 C   0  0  0  0  0  0  0  0  0  0  0  0
    7.6722   -0.2533   -1.7264 C   0  0  0  0  0  0  0  0  0  0  0  0
    8.8410   -0.1446   -2.5016 C   0  0  0  0  0  0  0  0  0  0  0  0
    9.5139   -1.2809   -2.9388 C   0  0  0  0  0  0  0  0  0  0  0  0
    9.0282   -2.5348   -2.5992 C   0  0  0  0  0  0  0  0  0  0  0  0
    7.8661   -2.6477   -1.8310 C   0  0  0  0  0  0  0  0  0  0  0  0
    7.1382   -1.5227   -1.3786 C   0  0  0  0  0  0  0  0  0  0  0  0
    5.8060   -1.7014   -0.5107 C   0  0  0  0  0  0  0  0  0  0  0  0
    5.0192   -3.0446   -0.5716 C   0  0  0  0  0  0  0  0  0  0  0  0
    3.6951   -2.2323   -0.4171 C   0  0  0  0  0  0  0  0  0  0  0  0
    3.2577   -2.0544    1.0503 C   0  0  0  0  0  0  0  0  0  0  0  0
    1.7724   -1.7166    1.1369 C   0  0  0  0  0  0  0  0  0  0  0  0
    0.9525   -2.7736    0.5418 N   0  0  0  0  0  0  0  0  0  0  0  0
   -0.3380   -3.1077    0.9652 C   0  0  0  0  0  0  0  0  0  0  0  0
   -0.9372   -4.0633    0.4551 O   0  0  0  0  0  0  0  0  0  0  0  0
   -0.9751   -2.2307    2.0819 C   0  0  0  0  0  0  0  0  0  0  0  0
   -2.4682   -2.4721    2.4292 C   0  0  0  0  0  0  0  0  0  0  0  0
   -2.8524   -1.2165    1.5922 C   0  0  0  0  0  0  0  0  0  0  0  0
   -3.2939   -1.5642    0.1556 C   0  0  0  0  0  0  0  0  0  0  0  0
   -4.0755   -0.4057   -0.4592 C   0  0  0  0  0  0  0  0  0  0  0  0
   -5.2756   -0.0893    0.3321 N   0  0  0  0  0  0  0  0  0  0  0  0
   -6.5364   -0.3524   -0.2425 C   0  0  0  0  0  0  0  0  0  0  0  0
   -6.7744   -1.5470   -0.9492 C   0  0  0  0  0  0  0  0  0  0  0  0
   -8.0306   -1.8461   -1.4817 C   0  0  0  0  0  0  0  0  0  0  0  0
   -9.0835   -0.9563   -1.3166 C   0  0  0  0  0  0  0  0  0  0  0  0
   -8.8790    0.2327   -0.6190 C   0  0  0  0  0  0  0  0  0  0  0  0
   -7.6190    0.5503   -0.0745 C   0  0  0  0  0  0  0  0  0  0  0  0
   -7.4790    1.8577    0.6083 C   0  0  0  0  0  0  0  0  0  0  0  0
   -8.2475    2.1824    1.6655 C   0  0  0  0  0  0  0  0  0  0  0  0
   -8.1495    3.5003    2.3831 C   0  0  0  0  0  0  0  0  0  0  0  0
   -6.9616    4.3080    2.0670 N   0  0  0  0  0  0  0  0  0  0  0  0
   -5.8041    3.8872    2.8557 C   0  0  0  0  0  0  0  0  0  0  0  0
   -6.6843    4.2554    0.6204 C   0  0  0  0  0  0  0  0  0  0  0  0
   -6.4654    2.8350    0.0662 C   0  0  0  0  0  0  0  0  0  0  0  0
   -5.2378   -0.4486    1.7615 C   0  0  0  0  0  0  0  0  0  0  0  0
   -3.8211   -0.2507    2.2947 C   0  0  0  0  0  0  0  0  0  0  0  0
   -1.3673   -0.7730    1.7273 C   0  0  0  0  0  0  0  0  0  0  0  0
    1.5440   -3.5298   -0.5634 C   0  0  0  0  0  0  0  0  0  0  0  0
    2.5501   -2.6849   -1.3358 C   0  0  0  0  0  0  0  0  0  0  0  0
    4.4917   -1.0306   -1.0091 C   0  0  0  0  0  0  0  0  0  0  0  0
    6.3645    1.8574   -2.3171 C   0  0  0  0  0  0  0  0  0  0  0  0
    5.4837    2.9472   -1.6776 C   0  0  0  0  0  0  0  0  0  0  0  0
    8.0830    3.8481   -1.2994 H   0  0  0  0  0  0  0  0  0  0  0  0
    7.6083    5.0162   -0.0544 H   0  0  0  0  0  0  0  0  0  0  0  0
    6.9571    5.1675   -1.6765 H   0  0  0  0  0  0  0  0  0  0  0  0
    7.1196    3.1067    1.2570 H   0  0  0  0  0  0  0  0  0  0  0  0
    5.5432    2.3767    1.0673 H   0  0  0  0  0  0  0  0  0  0  0  0
    7.5589    0.7443    0.7572 H   0  0  0  0  0  0  0  0  0  0  0  0
    9.2403    0.8349   -2.7554 H   0  0  0  0  0  0  0  0  0  0  0  0
   10.4181   -1.1855   -3.5333 H   0  0  0  0  0  0  0  0  0  0  0  0
    9.5510   -3.4295   -2.9269 H   0  0  0  0  0  0  0  0  0  0  0  0
    7.5186   -3.6473   -1.5763 H   0  0  0  0  0  0  0  0  0  0  0  0
    6.0210   -1.4351    0.5362 H   0  0  0  0  0  0  0  0  0  0  0  0
    5.1063   -3.5745   -1.5283 H   0  0  0  0  0  0  0  0  0  0  0  0
    5.2487   -3.7546    0.2290 H   0  0  0  0  0  0  0  0  0  0  0  0
    3.8426   -1.2736    1.5496 H   0  0  0  0  0  0  0  0  0  0  0  0
    3.4352   -2.9860    1.6034 H   0  0  0  0  0  0  0  0  0  0  0  0
    1.5560   -0.7910    0.5912 H   0  0  0  0  0  0  0  0  0  0  0  0
    1.4967   -1.5617    2.1824 H   0  0  0  0  0  0  0  0  0  0  0  0
   -0.3708   -2.2951    2.9976 H   0  0  0  0  0  0  0  0  0  0  0  0
   -2.6689   -2.3860    3.5047 H   0  0  0  0  0  0  0  0  0  0  0  0
   -2.8952   -3.4227    2.0948 H   0  0  0  0  0  0  0  0  0  0  0  0
   -3.9275   -2.4596    0.1693 H   0  0  0  0  0  0  0  0  0  0  0  0
   -2.4325   -1.7986   -0.4793 H   0  0  0  0  0  0  0  0  0  0  0  0
   -3.4419    0.4904   -0.4715 H   0  0  0  0  0  0  0  0  0  0  0  0
   -4.3114   -0.6173   -1.5089 H   0  0  0  0  0  0  0  0  0  0  0  0
   -5.9805   -2.2777   -1.0744 H   0  0  0  0  0  0  0  0  0  0  0  0
   -8.1825   -2.7779   -2.0197 H   0  0  0  0  0  0  0  0  0  0  0  0
  -10.0617   -1.1826   -1.7317 H   0  0  0  0  0  0  0  0  0  0  0  0
   -9.7093    0.9277   -0.5136 H   0  0  0  0  0  0  0  0  0  0  0  0
   -8.9892    1.4849    2.0446 H   0  0  0  0  0  0  0  0  0  0  0  0
   -8.2129    3.3293    3.4650 H   0  0  0  0  0  0  0  0  0  0  0  0
   -9.0414    4.0856    2.1256 H   0  0  0  0  0  0  0  0  0  0  0  0
   -5.5372    2.8349    2.7128 H   0  0  0  0  0  0  0  0  0  0  0  0
   -4.9292    4.4989    2.6083 H   0  0  0  0  0  0  0  0  0  0  0  0
   -5.9976    4.0433    3.9230 H   0  0  0  0  0  0  0  0  0  0  0  0
   -5.8143    4.8798    0.3816 H   0  0  0  0  0  0  0  0  0  0  0  0
   -7.5276    4.7200    0.0911 H   0  0  0  0  0  0  0  0  0  0  0  0
   -5.4516    2.5087    0.3217 H   0  0  0  0  0  0  0  0  0  0  0  0
   -6.5284    2.8763   -1.0281 H   0  0  0  0  0  0  0  0  0  0  0  0
   -5.9194    0.1888    2.3350 H   0  0  0  0  0  0  0  0  0  0  0  0
   -5.5495   -1.4910    1.9103 H   0  0  0  0  0  0  0  0  0  0  0  0
   -3.8050   -0.3932    3.3811 H   0  0  0  0  0  0  0  0  0  0  0  0
   -3.5132    0.7872    2.1095 H   0  0  0  0  0  0  0  0  0  0  0  0
   -1.1709   -0.0722    2.5485 H   0  0  0  0  0  0  0  0  0  0  0  0
   -0.9192   -0.3577    0.8194 H   0  0  0  0  0  0  0  0  0  0  0  0
    2.0281   -4.4131   -0.1302 H   0  0  0  0  0  0  0  0  0  0  0  0
    0.7572   -3.8791   -1.2407 H   0  0  0  0  0  0  0  0  0  0  0  0
    2.0321   -1.8047   -1.7396 H   0  0  0  0  0  0  0  0  0  0  0  0
    2.9296   -3.2470   -2.1966 H   0  0  0  0  0  0  0  0  0  0  0  0
    4.4290   -0.9426   -2.1014 H   0  0  0  0  0  0  0  0  0  0  0  0
    4.2601   -0.0540   -0.5739 H   0  0  0  0  0  0  0  0  0  0  0  0
    5.7346    1.2397   -2.9687 H   0  0  0  0  0  0  0  0  0  0  0  0
    7.1258    2.3264   -2.9524 H   0  0  0  0  0  0  0  0  0  0  0  0
    5.2003    3.6836   -2.4400 H   0  0  0  0  0  0  0  0  0  0  0  0
    4.5384    2.4940   -1.3489 H   0  0  0  0  0  0  0  0  0  0  0  0
  1  2  1  0
  2  3  1  0
  3  4  1  0
  4  5  2  0
  5  6  1  0
  6  7  2  0
  7  8  1  0
  8  9  2  0
  9 10  1  0
 10 11  2  0
 11 12  1  0
 12 13  1  0
 13 14  1  0
 14 15  1  0
 15 16  1  0
 16 17  1  0
 17 18  1  0
 18 19  2  0
 18 20  1  0
 20 21  1  0
 21 22  1  0
 22 23  1  0
 23 24  1  0
 24 25  1  0
 25 26  1  0
 26 27  2  0
 27 28  1  0
 28 29  2  0
 29 30  1  0
 30 31  2  0
 31 32  1  0
 32 33  2  0
 33 34  1  0
 34 35  1  0
 35 36  1  0
 35 37  1  0
 37 38  1  0
 25 39  1  0
 39 40  1  0
 22 41  1  0
 17 42  1  0
 42 43  1  0
 14 44  1  0
  5 45  1  0
 45 46  1  0
 46  2  1  0
 11  6  1  0
 44 12  1  0
 43 14  1  0
 41 20  1  0
 40 22  1  0
 31 26  1  0
 38 32  1  0
  1 47  1  0
  1 48  1  0
  1 49  1  0
  3 50  1  0
  3 51  1  0
  4 52  1  0
  7 53  1  0
  8 54  1  0
  9 55  1  0
 10 56  1  0
 12 57  1  0
 13 58  1  0
 13 59  1  0
 15 60  1  0
 15 61  1  0
 16 62  1  0
 16 63  1  0
 20 64  1  0
 21 65  1  0
 21 66  1  0
 23 67  1  0
 23 68  1  0
 24 69  1  0
 24 70  1  0
 27 71  1  0
 28 72  1  0
 29 73  1  0
 30 74  1  0
 33 75  1  0
 34 76  1  0
 34 77  1  0
 36 78  1  0
 36 79  1  0
 36 80  1  0
 37 81  1  0
 37 82  1  0
 38 83  1  0
 38 84  1  0
 39 85  1  0
 39 86  1  0
 40 87  1  0
 40 88  1  0
 41 89  1  0
 41 90  1  0
 42 91  1  0
 42 92  1  0
 43 93  1  0
 43 94  1  0
 44 95  1  0
 44 96  1  0
 45 97  1  0
 45 98  1  0
 46 99  1  0
 46100  1  0
M  END
$$$$
