
     RDKit          3D

 80 85  0  0  0  0  0  0  0  0999 V2000
   -9.6720    2.6559    1.5745 C   0  0  0  0  0  0  0  0  0  0  0  0
   -9.3427    1.3596    0.8525 C   0  0  0  0  0  0  0  0  0  0  0  0
   -8.1013    1.5287   -0.0121 C   0  0  0  0  0  0  0  0  0  0  0  0
   -7.5664    0.2364   -0.6786 C   0  0  0  0  0  0  0  0  0  0  0  0
   -6.1158    0.7585   -0.4284 C   0  0  0  0  0  0  0  0  0  0  0  0
   -5.5297    1.5996   -1.5799 C   0  0  0  0  0  0  0  0  0  0  0  0
   -4.4797    0.8071   -2.3516 C   0  0  0  0  0  0  0  0  0  0  0  0
   -3.3787    0.4032   -1.4757 N   0  0  0  0  0  0  0  0  0  0  0  0
   -2.0859    0.3295   -2.0030 C   0  0  0  0  0  0  0  0  0  0  0  0
   -1.8848    0.5264   -3.2080 O   0  0  0  0  0  0  0  0  0  0  0  0
   -0.9309    0.0081   -1.0104 C   0  0  0  0  0  0  0  0  0  0  0  0
   -0.5249   -1.4816   -0.8577 C   0  0  0  0  0  0  0  0  0  0  0  0
    0.9658   -1.0340   -0.7571 C   0  0  0  0  0  0  0  0  0  0  0  0
    1.4314   -0.8273    0.6971 C   0  0  0  0  0  0  0  0  0  0  0  0
    2.9563   -0.7443    0.7691 C   0  0  0  0  0  0  0  0  0  0  0  0
    3.5676   -1.9698    0.2309 N   0  0  0  0  0  0  0  0  0  0  0  0
    4.5906   -2.5519    0.9900 C   0  0  0  0  0  0  0  0  0  0  0  0
    4.4880   -3.8888    1.4229 C   0  0  0  0  0  0  0  0  0  0  0  0
    5.4703   -4.4907    2.2159 C   0  0  0  0  0  0  0  0  0  0  0  0
    6.5942   -3.7711    2.5949 C   0  0  0  0  0  0  0  0  0  0  0  0
    6.7395   -2.4538    2.1697 C   0  0  0  0  0  0  0  0  0  0  0  0
    5.7595   -1.8362    1.3668 C   0  0  0  0  0  0  0  0  0  0  0  0
    6.0641   -0.4684    0.8943 C   0  0  0  0  0  0  0  0  0  0  0  0
    6.1237    0.5704    1.7477 C   0  0  0  0  0  0  0  0  0  0  0  0
    6.4361    1.9723    1.3064 C   0  0  0  0  0  0  0  0  0  0  0  0
    7.0032    2.0518   -0.0479 N   0  0  0  0  0  0  0  0  0  0  0  0
    7.0561    3.4376   -0.5042 C   0  0  0  0  0  0  0  0  0  0  0  0
    6.2352    1.2156   -0.9829 C   0  0  0  0  0  0  0  0  0  0  0  0
    6.2994   -0.2685   -0.5816 C   0  0  0  0  0  0  0  0  0  0  0  0
    2.7564   -2.7961   -0.6664 C   0  0  0  0  0  0  0  0  0  0  0  0
    1.9484   -1.8800   -1.5832 C   0  0  0  0  0  0  0  0  0  0  0  0
    0.5239    0.2669   -1.4925 C   0  0  0  0  0  0  0  0  0  0  0  0
   -3.7144    0.0867   -0.0873 C   0  0  0  0  0  0  0  0  0  0  0  0
   -5.1683   -0.3501    0.0518 C   0  0  0  0  0  0  0  0  0  0  0  0
   -6.7351    1.6295    0.7129 C   0  0  0  0  0  0  0  0  0  0  0  0
   -8.8558    2.9563    2.2393 H   0  0  0  0  0  0  0  0  0  0  0  0
   -9.8408    3.4700    0.8620 H   0  0  0  0  0  0  0  0  0  0  0  0
  -10.5770    2.5361    2.1781 H   0  0  0  0  0  0  0  0  0  0  0  0
  -10.1932    1.0733    0.2234 H   0  0  0  0  0  0  0  0  0  0  0  0
   -9.2001    0.5592    1.5877 H   0  0  0  0  0  0  0  0  0  0  0  0
   -8.2412    2.3339   -0.7480 H   0  0  0  0  0  0  0  0  0  0  0  0
   -7.8141   -0.6814   -0.1301 H   0  0  0  0  0  0  0  0  0  0  0  0
   -7.8548    0.0945   -1.7245 H   0  0  0  0  0  0  0  0  0  0  0  0
   -6.3147    1.9394   -2.2650 H   0  0  0  0  0  0  0  0  0  0  0  0
   -5.0524    2.5006   -1.1730 H   0  0  0  0  0  0  0  0  0  0  0  0
   -4.1011    1.4101   -3.1836 H   0  0  0  0  0  0  0  0  0  0  0  0
   -4.9129   -0.1071   -2.7743 H   0  0  0  0  0  0  0  0  0  0  0  0
   -1.0867    0.4967   -0.0378 H   0  0  0  0  0  0  0  0  0  0  0  0
   -0.7645   -2.0900   -1.7386 H   0  0  0  0  0  0  0  0  0  0  0  0
   -0.9339   -1.9888    0.0215 H   0  0  0  0  0  0  0  0  0  0  0  0
    1.0937   -1.6675    1.3182 H   0  0  0  0  0  0  0  0  0  0  0  0
    0.9926    0.0784    1.1313 H   0  0  0  0  0  0  0  0  0  0  0  0
    3.3015    0.1149    0.1830 H   0  0  0  0  0  0  0  0  0  0  0  0
    3.2356   -0.5752    1.8163 H   0  0  0  0  0  0  0  0  0  0  0  0
    3.6155   -4.4839    1.1713 H   0  0  0  0  0  0  0  0  0  0  0  0
    5.3489   -5.5215    2.5377 H   0  0  0  0  0  0  0  0  0  0  0  0
    7.3624   -4.2342    3.2075 H   0  0  0  0  0  0  0  0  0  0  0  0
    7.6394   -1.9074    2.4451 H   0  0  0  0  0  0  0  0  0  0  0  0
    5.9285    0.4261    2.8066 H   0  0  0  0  0  0  0  0  0  0  0  0
    5.5129    2.5613    1.3849 H   0  0  0  0  0  0  0  0  0  0  0  0
    7.1589    2.3983    2.0126 H   0  0  0  0  0  0  0  0  0  0  0  0
    7.5406    3.5008   -1.4849 H   0  0  0  0  0  0  0  0  0  0  0  0
    6.0597    3.8872   -0.5835 H   0  0  0  0  0  0  0  0  0  0  0  0
    7.6557    4.0461    0.1819 H   0  0  0  0  0  0  0  0  0  0  0  0
    6.6439    1.3095   -1.9966 H   0  0  0  0  0  0  0  0  0  0  0  0
    5.1879    1.5447   -1.0264 H   0  0  0  0  0  0  0  0  0  0  0  0
    5.5701   -0.8181   -1.1862 H   0  0  0  0  0  0  0  0  0  0  0  0
    7.2902   -0.6698   -0.8317 H   0  0  0  0  0  0  0  0  0  0  0  0
    2.0782   -3.4457   -0.0999 H   0  0  0  0  0  0  0  0  0  0  0  0
    3.4056   -3.4292   -1.2831 H   0  0  0  0  0  0  0  0  0  0  0  0
    1.4232   -2.4741   -2.3395 H   0  0  0  0  0  0  0  0  0  0  0  0
    2.6412   -1.2216   -2.1242 H   0  0  0  0  0  0  0  0  0  0  0  0
    0.9756    1.1964   -1.1321 H   0  0  0  0  0  0  0  0  0  0  0  0
    0.6486    0.2306   -2.5819 H   0  0  0  0  0  0  0  0  0  0  0  0
   -3.5215    0.9877    0.5065 H   0  0  0  0  0  0  0  0  0  0  0  0
   -3.0598   -0.7081    0.2802 H   0  0  0  0  0  0  0  0  0  0  0  0
   -5.3234   -1.2538   -0.5525 H   0  0  0  0  0  0  0  0  0  0  0  0
   -5.3782   -0.6296    1.0906 H   0  0  0  0  0  0  0  0  0  0  0  0
   -6.7238    1.1560    1.7025 H   0  0  0  0  0  0  0  0  0  0  0  0
   -6.3400    2.6442    0.8207 H   0  0  0  0  0  0  0  0  0  0  0  0
  1  2  1  0
  2  3  1  0
  3  4  1  0
  4  5  1  0
  5  6  1  0
  6  7  1  0
  7  8  1  0
  8  9  1  0
  9 10  2  0
  9 11  1  0
 11 12  1  0
 12 13  1  0
 13 14  1  0
 14 15  1  0
 15 16  1  0
 16 17  1  0
 17 18  2  0
 18 19  1  0
 19 20  2  0
 20 21  1  0
 21 22  2  0
 22 23  1  0
 23 24  2  0
 24 25  1  0
 25 26  1  0
 26 27  1  0
 26 28  1  0
 28 29  1  0
 16 30  1  0
 30 31  1  0
 13 32  1  0
  8 33  1  0
 33 34  1  0
  5 35  1  0
 35  3  1  0
 34  5  1  0
 32 11  1  0
 31 13  1  0
 22 17  1  0
 29 23  1  0
  1 36  1  0
  1 37  1  0
  1 38  1  0
  2 39  1  0
  2 40  1  0
  3 41  1  0
  4 42  1  0
  4 43  1  0
  6 44  1  0
  6 45  1  0
  7 46  1  0
  7 47  1  0
 11 48  1  0
 12 49  1  0
 12 50  1  0
 14 51  1  0
 14 52  1  0
 15 53  1  0
 15 54  1  0
 18 55  1  0
 19 56  1  0
 20 57  1  0
 21 58  1  0
 24 59  1  0
 25 60  1  0
 25 61  1  0
 27 62  1  0
 27 63  1  0
 27 64  1  0
 28 65  1  0
 28 66  1  0
 29 67  1  0
 29 68  1  0
 30 69  1  0
 30 70  1  0
 31 71  1  0
 31 72  1  0
 32 73  1  0
 32 74  1  0
 33 75  1  0
 33 76  1  0
 34 77  1  0
 34 78  1  0
 35 79  1  0
 35 80  1  0
M  END
$$$$

     RDKit          3D

 80 85  0  0  0  0  0  0  0  0999 V2000
    9.2193    2.0113   -2.4262 C   0  0  0  0  0  0  0  0  0  0  0  0
    8.1897    0.9019   -2.2778 C   0  0  0  0  0  0  0  0  0  0  0  0
    8.2035    0.3394   -0.8580 C   0  0  0  0  0  0  0  0  0  0  0  0
    7.1638   -0.7636   -0.5609 C   0  0  0  0  0  0  0  0  0  0  0  0
    6.3180    0.2502    0.2636 C   0  0  0  0  0  0  0  0  0  0  0  0
    5.9534   -0.2944    1.6553 C   0  0  0  0  0  0  0  0  0  0  0  0
    4.8039    0.5048    2.2574 C   0  0  0  0  0  0  0  0  0  0  0  0
    3.6034    0.4096    1.4256 N   0  0  0  0  0  0  0  0  0  0  0  0
    2.3522    0.5196    2.0398 C   0  0  0  0  0  0  0  0  0  0  0  0
    2.2651    0.7686    3.2492 O   0  0  0  0  0  0  0  0  0  0  0  0
    1.0977    0.3107    1.1482 C   0  0  0  0  0  0  0  0  0  0  0  0
    0.8403   -1.1123    0.5819 C   0  0  0  0  0  0  0  0  0  0  0  0
   -0.6807   -0.9070    0.8294 C   0  0  0  0  0  0  0  0  0  0  0  0
   -1.3674   -2.1460    1.4137 C   0  0  0  0  0  0  0  0  0  0  0  0
   -2.8291   -1.8346    1.7362 C   0  0  0  0  0  0  0  0  0  0  0  0
   -3.5264   -1.2703    0.5786 N   0  0  0  0  0  0  0  0  0  0  0  0
   -4.3783   -2.0446   -0.2119 C   0  0  0  0  0  0  0  0  0  0  0  0
   -4.0958   -3.4030   -0.4536 C   0  0  0  0  0  0  0  0  0  0  0  0
   -4.9017   -4.1977   -1.2744 C   0  0  0  0  0  0  0  0  0  0  0  0
   -6.0284   -3.6556   -1.8734 C   0  0  0  0  0  0  0  0  0  0  0  0
   -6.3538   -2.3226   -1.6384 C   0  0  0  0  0  0  0  0  0  0  0  0
   -5.5513   -1.5080   -0.8116 C   0  0  0  0  0  0  0  0  0  0  0  0
   -6.0533   -0.1380   -0.5419 C   0  0  0  0  0  0  0  0  0  0  0  0
   -6.2852    0.7378   -1.5382 C   0  0  0  0  0  0  0  0  0  0  0  0
   -6.8074    2.1278   -1.3052 C   0  0  0  0  0  0  0  0  0  0  0  0
   -6.7408    2.5580    0.0990 N   0  0  0  0  0  0  0  0  0  0  0  0
   -7.4917    3.7943    0.2959 C   0  0  0  0  0  0  0  0  0  0  0  0
   -7.2286    1.4940    0.9894 C   0  0  0  0  0  0  0  0  0  0  0  0
   -6.3367    0.2435    0.8904 C   0  0  0  0  0  0  0  0  0  0  0  0
   -2.8970   -0.0993   -0.0474 C   0  0  0  0  0  0  0  0  0  0  0  0
   -1.4407   -0.4034   -0.4069 C   0  0  0  0  0  0  0  0  0  0  0  0
   -0.2751    0.1807    1.8677 C   0  0  0  0  0  0  0  0  0  0  0  0
    3.8042    0.2013   -0.0088 C   0  0  0  0  0  0  0  0  0  0  0  0
    5.1067    0.8369   -0.4866 C   0  0  0  0  0  0  0  0  0  0  0  0
    7.5571    1.1962    0.2536 C   0  0  0  0  0  0  0  0  0  0  0  0
    9.2217    2.3925   -3.4520 H   0  0  0  0  0  0  0  0  0  0  0  0
    9.0029    2.8467   -1.7530 H   0  0  0  0  0  0  0  0  0  0  0  0
   10.2254    1.6466   -2.1948 H   0  0  0  0  0  0  0  0  0  0  0  0
    8.4263    0.1026   -2.9897 H   0  0  0  0  0  0  0  0  0  0  0  0
    7.2012    1.2889   -2.5444 H   0  0  0  0  0  0  0  0  0  0  0  0
    9.2194    0.0116   -0.5969 H   0  0  0  0  0  0  0  0  0  0  0  0
    7.5835   -1.5884    0.0289 H   0  0  0  0  0  0  0  0  0  0  0  0
    6.6682   -1.2008   -1.4338 H   0  0  0  0  0  0  0  0  0  0  0  0
    6.8179   -0.2769    2.3285 H   0  0  0  0  0  0  0  0  0  0  0  0
    5.6435   -1.3447    1.5712 H   0  0  0  0  0  0  0  0  0  0  0  0
    5.0640    1.5672    2.3331 H   0  0  0  0  0  0  0  0  0  0  0  0
    4.5888    0.1406    3.2677 H   0  0  0  0  0  0  0  0  0  0  0  0
    1.0380    1.0878    0.3723 H   0  0  0  0  0  0  0  0  0  0  0  0
    1.1356   -1.2617   -0.4613 H   0  0  0  0  0  0  0  0  0  0  0  0
    1.2956   -1.9103    1.1817 H   0  0  0  0  0  0  0  0  0  0  0  0
   -0.8601   -2.4838    2.3254 H   0  0  0  0  0  0  0  0  0  0  0  0
   -1.3007   -2.9703    0.6950 H   0  0  0  0  0  0  0  0  0  0  0  0
   -3.3361   -2.7264    2.1236 H   0  0  0  0  0  0  0  0  0  0  0  0
   -2.8687   -1.0933    2.5445 H   0  0  0  0  0  0  0  0  0  0  0  0
   -3.2161   -3.8669   -0.0204 H   0  0  0  0  0  0  0  0  0  0  0  0
   -4.6411   -5.2390   -1.4431 H   0  0  0  0  0  0  0  0  0  0  0  0
   -6.6616   -4.2685   -2.5083 H   0  0  0  0  0  0  0  0  0  0  0  0
   -7.2611   -1.9209   -2.0842 H   0  0  0  0  0  0  0  0  0  0  0  0
   -6.0961    0.4619   -2.5717 H   0  0  0  0  0  0  0  0  0  0  0  0
   -6.2121    2.8214   -1.9109 H   0  0  0  0  0  0  0  0  0  0  0  0
   -7.8381    2.1638   -1.6818 H   0  0  0  0  0  0  0  0  0  0  0  0
   -8.5600    3.6698    0.0847 H   0  0  0  0  0  0  0  0  0  0  0  0
   -7.1023    4.5883   -0.3510 H   0  0  0  0  0  0  0  0  0  0  0  0
   -7.3845    4.1486    1.3271 H   0  0  0  0  0  0  0  0  0  0  0  0
   -8.2682    1.2319    0.7491 H   0  0  0  0  0  0  0  0  0  0  0  0
   -7.2159    1.8369    2.0314 H   0  0  0  0  0  0  0  0  0  0  0  0
   -6.8369   -0.5816    1.4119 H   0  0  0  0  0  0  0  0  0  0  0  0
   -5.3967    0.4428    1.4167 H   0  0  0  0  0  0  0  0  0  0  0  0
   -2.9416    0.7377    0.6593 H   0  0  0  0  0  0  0  0  0  0  0  0
   -3.4099    0.2287   -0.9571 H   0  0  0  0  0  0  0  0  0  0  0  0
   -1.4102   -1.1683   -1.1936 H   0  0  0  0  0  0  0  0  0  0  0  0
   -0.9756    0.4981   -0.8219 H   0  0  0  0  0  0  0  0  0  0  0  0
   -0.2072   -0.1887    2.8984 H   0  0  0  0  0  0  0  0  0  0  0  0
   -0.8778    1.0937    1.8749 H   0  0  0  0  0  0  0  0  0  0  0  0
    2.9694    0.6221   -0.5742 H   0  0  0  0  0  0  0  0  0  0  0  0
    3.8166   -0.8811   -0.1814 H   0  0  0  0  0  0  0  0  0  0  0  0
    5.0481    1.9183   -0.3062 H   0  0  0  0  0  0  0  0  0  0  0  0
    5.2023    0.7015   -1.5690 H   0  0  0  0  0  0  0  0  0  0  0  0
    7.3581    2.2411   -0.0051 H   0  0  0  0  0  0  0  0  0  0  0  0
    8.1430    1.1943    1.1809 H   0  0  0  0  0  0  0  0  0  0  0  0
  1  2  1  0
  2  3  1  0
  3  4  1  0
  4  5  1  0
  5  6  1  0
  6  7  1  0
  7  8  1  0
  8  9  1  0
  9 10  2  0
  9 11  1  0
 11 12  1  0
 12 13  1  0
 13 14  1  0
 14 15  1  0
 15 16  1  0
 16 17  1  0
 17 18  2  0
 18 19  1  0
 19 20  2  0
 20 21  1  0
 21 22  2  0
 22 23  1  0
 23 24  2  0
 24 25  1  0
 25 26  1  0
 26 27  1  0
 26 28  1  0
 28 29  1  0
 16 30  1  0
 30 31  1  0
 13 32  1  0
  8 33  1  0
 33 34  1  0
  5 35  1  0
 35  3  1  0
 34  5  1  0
 32 11  1  0
 31 13  1  0
 22 17  1  0
 29 23  1  0
  1 36  1  0
  1 37  1  0
  1 38  1  0
  2 39  1  0
  2 40  1  0
  3 41  1  0
  4 42  1  0
  4 43  1  0
  6 44  1  0
  6 45  1  0
  7 46  1  0
  7 47  1  0
 11 48  1  0
 12 49  1  0
 12 50  1  0
 14 51  1  0
 14 52  1  0
 15 53  1  0
 15 54  1  0
 18 55  1  0
 19 56  1  0
 20 57  1  0
 21 58  1  0
 24 59  1  0
 25 60  1  0
 25 61  1  0
 27 62  1  0
 27 63  1  0
 27 64  1  0
 28 65  1  0
 28 66  1  0
 29 67  1  0
 29 68  1  0
 30 69  1  0
 30 70  1  0
 31 71  1  0
 31 72  1  0
 32 73  1  0
 32 74  1  0
 33 75  1  0
 33 76  1  0
 34 77  1  0
 34 78  1  0
 35 79  1  0
 35 80  1  0
M  END
$$$$

     RDKit          3D

 80 85  0  0  0  0  0  0  0  0999 V2000
    9.7041   -0.5576    2.7049 C   0  0  0  0  0  0  0  0  0  0  0  0
    8.6114   -0.0096    3.6065 C   0  0  0  0  0  0  0  0  0  0  0  0
    7.2657    0.1914    2.9163 C   0  0  0  0  0  0  0  0  0  0  0  0
    7.1671    1.0283    1.6150 C   0  0  0  0  0  0  0  0  0  0  0  0
    6.0062    0.0858    1.1518 C   0  0  0  0  0  0  0  0  0  0  0  0
    6.0925   -0.3642   -0.3150 C   0  0  0  0  0  0  0  0  0  0  0  0
    5.1116    0.4212   -1.1776 C   0  0  0  0  0  0  0  0  0  0  0  0
    3.7336    0.2061   -0.7334 N   0  0  0  0  0  0  0  0  0  0  0  0
    2.7049    0.2578   -1.6785 C   0  0  0  0  0  0  0  0  0  0  0  0
    2.9453    0.5578   -2.8550 O   0  0  0  0  0  0  0  0  0  0  0  0
    1.2702   -0.0931   -1.1893 C   0  0  0  0  0  0  0  0  0  0  0  0
    0.3795    1.0829   -0.7088 C   0  0  0  0  0  0  0  0  0  0  0  0
   -0.8400    0.4040   -1.3940 C   0  0  0  0  0  0  0  0  0  0  0  0
   -1.6762   -0.4679   -0.4420 C   0  0  0  0  0  0  0  0  0  0  0  0
   -2.7990   -1.1670   -1.2132 C   0  0  0  0  0  0  0  0  0  0  0  0
   -3.6015   -0.1521   -1.9165 N   0  0  0  0  0  0  0  0  0  0  0  0
   -4.8441   -0.6690   -2.3469 C   0  0  0  0  0  0  0  0  0  0  0  0
   -5.0299   -1.1443   -3.6582 C   0  0  0  0  0  0  0  0  0  0  0  0
   -6.2480   -1.6910   -4.0713 C   0  0  0  0  0  0  0  0  0  0  0  0
   -7.3106   -1.7777   -3.1804 C   0  0  0  0  0  0  0  0  0  0  0  0
   -7.1564   -1.3149   -1.8753 C   0  0  0  0  0  0  0  0  0  0  0  0
   -5.9377   -0.7586   -1.4450 C   0  0  0  0  0  0  0  0  0  0  0  0
   -5.8701   -0.2567   -0.0555 C   0  0  0  0  0  0  0  0  0  0  0  0
   -5.9632   -1.0989    0.9906 C   0  0  0  0  0  0  0  0  0  0  0  0
   -5.8855   -0.6440    2.4213 C   0  0  0  0  0  0  0  0  0  0  0  0
   -6.0260    0.8047    2.6329 N   0  0  0  0  0  0  0  0  0  0  0  0
   -7.4310    1.2087    2.6607 C   0  0  0  0  0  0  0  0  0  0  0  0
   -5.2641    1.5429    1.6096 C   0  0  0  0  0  0  0  0  0  0  0  0
   -5.6637    1.2217    0.1575 C   0  0  0  0  0  0  0  0  0  0  0  0
   -2.8371    0.6365   -2.8920 C   0  0  0  0  0  0  0  0  0  0  0  0
   -1.7337    1.3948   -2.1514 C   0  0  0  0  0  0  0  0  0  0  0  0
    0.1901   -0.3653   -2.2738 C   0  0  0  0  0  0  0  0  0  0  0  0
    3.5255   -0.0420    0.6936 C   0  0  0  0  0  0  0  0  0  0  0  0
    4.6116    0.6148    1.5397 C   0  0  0  0  0  0  0  0  0  0  0  0
    6.6004   -0.9725    2.1373 C   0  0  0  0  0  0  0  0  0  0  0  0
    9.9109    0.1121    1.8657 H   0  0  0  0  0  0  0  0  0  0  0  0
    9.4424   -1.5398    2.3020 H   0  0  0  0  0  0  0  0  0  0  0  0
   10.6333   -0.6712    3.2731 H   0  0  0  0  0  0  0  0  0  0  0  0
    8.9466    0.9475    4.0235 H   0  0  0  0  0  0  0  0  0  0  0  0
    8.4805   -0.6919    4.4548 H   0  0  0  0  0  0  0  0  0  0  0  0
    6.5749    0.5875    3.6784 H   0  0  0  0  0  0  0  0  0  0  0  0
    6.9081    2.0814    1.7623 H   0  0  0  0  0  0  0  0  0  0  0  0
    8.0562    0.9910    0.9766 H   0  0  0  0  0  0  0  0  0  0  0  0
    5.8445   -1.4315   -0.3876 H   0  0  0  0  0  0  0  0  0  0  0  0
    7.1100   -0.2517   -0.7058 H   0  0  0  0  0  0  0  0  0  0  0  0
    5.2198    0.1230   -2.2257 H   0  0  0  0  0  0  0  0  0  0  0  0
    5.3102    1.4976   -1.1146 H   0  0  0  0  0  0  0  0  0  0  0  0
    1.2821   -0.9243   -0.4695 H   0  0  0  0  0  0  0  0  0  0  0  0
    0.3095    1.2034    0.3767 H   0  0  0  0  0  0  0  0  0  0  0  0
    0.6633    2.0510   -1.1401 H   0  0  0  0  0  0  0  0  0  0  0  0
   -2.1135    0.1634    0.3424 H   0  0  0  0  0  0  0  0  0  0  0  0
   -1.0573   -1.2196    0.0608 H   0  0  0  0  0  0  0  0  0  0  0  0
   -3.3996   -1.7412   -0.4986 H   0  0  0  0  0  0  0  0  0  0  0  0
   -2.3812   -1.8808   -1.9346 H   0  0  0  0  0  0  0  0  0  0  0  0
   -4.2169   -1.1163   -4.3770 H   0  0  0  0  0  0  0  0  0  0  0  0
   -6.3607   -2.0530   -5.0898 H   0  0  0  0  0  0  0  0  0  0  0  0
   -8.2590   -2.2010   -3.4993 H   0  0  0  0  0  0  0  0  0  0  0  0
   -7.9993   -1.3753   -1.1904 H   0  0  0  0  0  0  0  0  0  0  0  0
   -6.0721   -2.1678    0.8295 H   0  0  0  0  0  0  0  0  0  0  0  0
   -6.6319   -1.1863    3.0150 H   0  0  0  0  0  0  0  0  0  0  0  0
   -4.9110   -0.9570    2.8174 H   0  0  0  0  0  0  0  0  0  0  0  0
   -7.9750    0.9577    1.7439 H   0  0  0  0  0  0  0  0  0  0  0  0
   -7.5158    2.2888    2.8245 H   0  0  0  0  0  0  0  0  0  0  0  0
   -7.9460    0.7279    3.5001 H   0  0  0  0  0  0  0  0  0  0  0  0
   -4.1980    1.3140    1.7443 H   0  0  0  0  0  0  0  0  0  0  0  0
   -5.3514    2.6229    1.7828 H   0  0  0  0  0  0  0  0  0  0  0  0
   -6.5954    1.7446   -0.0930 H   0  0  0  0  0  0  0  0  0  0  0  0
   -4.8901    1.6255   -0.5031 H   0  0  0  0  0  0  0  0  0  0  0  0
   -2.3905   -0.0094   -3.6579 H   0  0  0  0  0  0  0  0  0  0  0  0
   -3.4875    1.3651   -3.3912 H   0  0  0  0  0  0  0  0  0  0  0  0
   -2.1842    2.1017   -1.4426 H   0  0  0  0  0  0  0  0  0  0  0  0
   -1.1506    1.9854   -2.8677 H   0  0  0  0  0  0  0  0  0  0  0  0
    0.3928    0.1084   -3.2419 H   0  0  0  0  0  0  0  0  0  0  0  0
   -0.0225   -1.4233   -2.4544 H   0  0  0  0  0  0  0  0  0  0  0  0
    2.5486    0.3389    1.0014 H   0  0  0  0  0  0  0  0  0  0  0  0
    3.5255   -1.1287    0.8373 H   0  0  0  0  0  0  0  0  0  0  0  0
    4.4028    0.4488    2.6027 H   0  0  0  0  0  0  0  0  0  0  0  0
    4.5706    1.6996    1.3754 H   0  0  0  0  0  0  0  0  0  0  0  0
    7.3013   -1.6709    1.6669 H   0  0  0  0  0  0  0  0  0  0  0  0
    5.8739   -1.5592    2.7080 H   0  0  0  0  0  0  0  0  0  0  0  0
  1  2  1  0
  2  3  1  0
  3  4  1  0
  4  5  1  0
  5  6  1  0
  6  7  1  0
  7  8  1  0
  8  9  1  0
  9 10  2  0
  9 11  1  0
 11 12  1  0
 12 13  1  0
 13 14  1  0
 14 15  1  0
 15 16  1  0
 16 17  1  0
 17 18  2  0
 18 19  1  0
 19 20  2  0
 20 21  1  0
 21 22  2  0
 22 23  1  0
 23 24  2  0
 24 25  1  0
 25 26  1  0
 26 27  1  0
 26 28  1  0
 28 29  1  0
 16 30  1  0
 30 31  1  0
 13 32  1  0
  8 33  1  0
 33 34  1  0
  5 35  1  0
 35  3  1  0
 34  5  1  0
 32 11  1  0
 31 13  1  0
 22 17  1  0
 29 23  1  0
  1 36  1  0
  1 37  1  0
  1 38  1  0
  2 39  1  0
  2 40  1  0
  3 41  1  0
  4 42  1  0
  4 43  1  0
  6 44  1  0
  6 45  1  0
  7 46  1  0
  7 47  1  0
 11 48  1  0
 12 49  1  0
 12 50  1  0
 14 51  1  0
 14 52  1  0
 15 53  1  0
 15 54  1  0
 18 55  1  0
 19 56  1  0
 20 57  1  0
 21 58  1  0
 24 59  1  0
 25 60  1  0
 25 61  1  0
 27 62  1  0
 27 63  1  0
 27 64  1  0
 28 65  1  0
 28 66  1  0
 29 67  1  0
 29 68  1  0
 30 69  1  0
 30 70  1  0
 31 71  1  0
 31 72  1  0
 32 73  1  0
 32 74  1  0
 33 75  1  0
 33 76  1  0
 34 77  1  0
 34 78  1  0
 35 79  1  0
 35 80  1  0
M  END
$$$$
