
     RDKit          3D

 89 94  0  0  0  0  0  0  0  0999 V2000
    7.4072    2.7031    2.1393 C   0  0  0  0  0  0  0  0  0  0  0  0
    6.0090    2.7464    1.7137 N   0  0  0  0  0  0  0  0  0  0  0  0
    5.8892    3.0999    0.2908 C   0  0  0  0  0  0  0  0  0  0  0  0
    6.0682    1.9614   -0.6747 C   0  0  0  0  0  0  0  0  0  0  0  0
    6.0432    0.6686   -0.3005 C   0  0  0  0  0  0  0  0  0  0  0  0
    6.2083   -0.4146   -1.2933 C   0  0  0  0  0  0  0  0  0  0  0  0
    7.4597   -0.5307   -1.9257 C   0  0  0  0  0  0  0  0  0  0  0  0
    7.7032   -1.5461   -2.8482 C   0  0  0  0  0  0  0  0  0  0  0  0
    6.6983   -2.4567   -3.1509 C   0  0  0  0  0  0  0  0  0  0  0  0
    5.4486   -2.3522   -2.5338 C   0  0  0  0  0  0  0  0  0  0  0  0
    5.1735   -1.3382   -1.5982 C   0  0  0  0  0  0  0  0  0  0  0  0
    3.8990   -1.2059   -1.0028 N   0  0  0  0  0  0  0  0  0  0  0  0
    3.0635   -0.2209   -1.7121 C   0  0  0  0  0  0  0  0  0  0  0  0
    1.8938    0.1733   -0.8087 C   0  0  0  0  0  0  0  0  0  0  0  0
    1.1031   -1.0749   -0.3956 C   0  0  0  0  0  0  0  0  0  0  0  0
    2.0255   -2.1123    0.2676 C   0  0  0  0  0  0  0  0  0  0  0  0
    3.1930   -2.4475   -0.6653 C   0  0  0  0  0  0  0  0  0  0  0  0
    0.1355   -1.6347   -1.4796 C   0  0  0  0  0  0  0  0  0  0  0  0
   -0.9506   -1.8032   -0.3781 C   0  0  0  0  0  0  0  0  0  0  0  0
   -2.4155   -1.4702   -0.7666 C   0  0  0  0  0  0  0  0  0  0  0  0
   -2.7298   -1.1862   -1.9299 O   0  0  0  0  0  0  0  0  0  0  0  0
   -3.3797   -1.4914    0.2453 N   0  0  0  0  0  0  0  0  0  0  0  0
   -3.1238   -1.8632    1.6413 C   0  0  0  0  0  0  0  0  0  0  0  0
   -4.1144   -2.9355    2.1337 C   0  0  0  0  0  0  0  0  0  0  0  0
   -5.5346   -2.6209    1.9073 N   0  0  0  0  0  0  0  0  0  0  0  0
   -6.0721   -1.7079    2.9044 C   0  0  0  0  0  0  0  0  0  0  0  0
   -5.7472   -2.1815    0.5143 C   0  0  0  0  0  0  0  0  0  0  0  0
   -4.7782   -1.1026   -0.0643 C   0  0  1  0  0  0  0  0  0  0  0  0
   -5.0648    0.3768    0.3569 C   0  0  1  0  0  0  0  0  0  0  0  0
   -4.1306    1.3589   -0.3870 C   0  0  0  0  0  0  0  0  0  0  0  0
   -4.4213    2.8194   -0.0474 C   0  0  0  0  0  0  0  0  0  0  0  0
   -5.8846    3.2105   -0.2814 C   0  0  2  0  0  0  0  0  0  0  0  0
   -6.2195    3.2917   -1.7734 C   0  0  0  0  0  0  0  0  0  0  0  0
   -6.0953    4.5235    0.2482 O   0  0  0  0  0  0  0  0  0  0  0  0
   -6.8120    2.2381    0.4561 C   0  0  0  0  0  0  0  0  0  0  0  0
   -6.5368    0.7719    0.1249 C   0  0  0  0  0  0  0  0  0  0  0  0
   -0.1646   -0.7418    0.4397 C   0  0  0  0  0  0  0  0  0  0  0  0
    5.8143    0.2839    1.1392 C   0  0  0  0  0  0  0  0  0  0  0  0
    5.3152    1.4737    1.9798 C   0  0  0  0  0  0  0  0  0  0  0  0
    7.4763    2.4442    3.2018 H   0  0  0  0  0  0  0  0  0  0  0  0
    7.8656    3.6928    2.0325 H   0  0  0  0  0  0  0  0  0  0  0  0
    8.0135    1.9885    1.5727 H   0  0  0  0  0  0  0  0  0  0  0  0
    4.8908    3.5240    0.1239 H   0  0  0  0  0  0  0  0  0  0  0  0
    6.5949    3.9017    0.0405 H   0  0  0  0  0  0  0  0  0  0  0  0
    6.1930    2.2304   -1.7200 H   0  0  0  0  0  0  0  0  0  0  0  0
    8.2572    0.1695   -1.6874 H   0  0  0  0  0  0  0  0  0  0  0  0
    8.6756   -1.6251   -3.3263 H   0  0  0  0  0  0  0  0  0  0  0  0
    6.8806   -3.2479   -3.8733 H   0  0  0  0  0  0  0  0  0  0  0  0
    4.6819   -3.0668   -2.8165 H   0  0  0  0  0  0  0  0  0  0  0  0
    2.6924   -0.6496   -2.6522 H   0  0  0  0  0  0  0  0  0  0  0  0
    3.6246    0.6861   -1.9646 H   0  0  0  0  0  0  0  0  0  0  0  0
    1.2525    0.8919   -1.3325 H   0  0  0  0  0  0  0  0  0  0  0  0
    2.2774    0.6789    0.0869 H   0  0  0  0  0  0  0  0  0  0  0  0
    2.4163   -1.7053    1.2094 H   0  0  0  0  0  0  0  0  0  0  0  0
    1.4826   -3.0311    0.5165 H   0  0  0  0  0  0  0  0  0  0  0  0
    2.8152   -2.9439   -1.5670 H   0  0  0  0  0  0  0  0  0  0  0  0
    3.8651   -3.1424   -0.1471 H   0  0  0  0  0  0  0  0  0  0  0  0
    0.4411   -2.5643   -1.9689 H   0  0  0  0  0  0  0  0  0  0  0  0
   -0.1254   -0.9108   -2.2613 H   0  0  0  0  0  0  0  0  0  0  0  0
   -0.8807   -2.8100    0.0590 H   0  0  0  0  0  0  0  0  0  0  0  0
   -3.2054   -0.9536    2.2460 H   0  0  0  0  0  0  0  0  0  0  0  0
   -2.1107   -2.2447    1.7741 H   0  0  0  0  0  0  0  0  0  0  0  0
   -3.8966   -3.8706    1.6007 H   0  0  0  0  0  0  0  0  0  0  0  0
   -3.9321   -3.1510    3.1936 H   0  0  0  0  0  0  0  0  0  0  0  0
   -6.0461   -2.1793    3.8935 H   0  0  0  0  0  0  0  0  0  0  0  0
   -5.5242   -0.7666    2.9775 H   0  0  0  0  0  0  0  0  0  0  0  0
   -7.1244   -1.4831    2.6997 H   0  0  0  0  0  0  0  0  0  0  0  0
   -5.6120   -3.0818   -0.1033 H   0  0  0  0  0  0  0  0  0  0  0  0
   -6.7956   -1.9095    0.3544 H   0  0  0  0  0  0  0  0  0  0  0  0
   -4.9131   -1.1444   -1.1531 H   0  0  0  0  0  0  0  0  0  0  0  0
   -4.8506    0.4972    1.4239 H   0  0  0  0  0  0  0  0  0  0  0  0
   -4.2157    1.2088   -1.4696 H   0  0  0  0  0  0  0  0  0  0  0  0
   -3.0866    1.1584   -0.1221 H   0  0  0  0  0  0  0  0  0  0  0  0
   -3.7577    3.4752   -0.6252 H   0  0  0  0  0  0  0  0  0  0  0  0
   -4.1582    2.9993    1.0040 H   0  0  0  0  0  0  0  0  0  0  0  0
   -7.2523    3.6294   -1.9192 H   0  0  0  0  0  0  0  0  0  0  0  0
   -5.5828    4.0319   -2.2719 H   0  0  0  0  0  0  0  0  0  0  0  0
   -6.0983    2.3356   -2.2896 H   0  0  0  0  0  0  0  0  0  0  0  0
   -5.8638    4.5120    1.1922 H   0  0  0  0  0  0  0  0  0  0  0  0
   -7.8605    2.4777    0.2383 H   0  0  0  0  0  0  0  0  0  0  0  0
   -6.7042    2.3833    1.5398 H   0  0  0  0  0  0  0  0  0  0  0  0
   -6.8188    0.5658   -0.9144 H   0  0  0  0  0  0  0  0  0  0  0  0
   -7.1968    0.1676    0.7552 H   0  0  0  0  0  0  0  0  0  0  0  0
   -0.0884   -0.9361    1.5139 H   0  0  0  0  0  0  0  0  0  0  0  0
   -0.5421    0.2798    0.3062 H   0  0  0  0  0  0  0  0  0  0  0  0
    5.0848   -0.5267    1.2336 H   0  0  0  0  0  0  0  0  0  0  0  0
    6.7577   -0.0917    1.5552 H   0  0  0  0  0  0  0  0  0  0  0  0
    5.3853    1.2235    3.0458 H   0  0  0  0  0  0  0  0  0  0  0  0
    4.2434    1.6207    1.7875 H   0  0  0  0  0  0  0  0  0  0  0  0
  1  2  1  0
  2  3  1  0
  3  4  1  0
  4  5  2  0
  5  6  1  0
  6  7  2  0
  7  8  1  0
  8  9  2  0
  9 10  1  0
 10 11  2  0
 11 12  1  0
 12 13  1  0
 13 14  1  0
 14 15  1  0
 15 16  1  0
 16 17  1  0
 15 18  1  0
 18 19  1  0
 19 20  1  0
 20 21  2  0
 20 22  1  0
 22 23  1  0
 23 24  1  0
 24 25  1  0
 25 26  1  0
 25 27  1  0
 27 28  1  0
 28 29  1  0
 29 30  1  0
 30 31  1  0
 31 32  1  0
 32 33  1  0
 32 34  1  1
 32 35  1  0
 35 36  1  0
 19 37  1  0
  5 38  1  0
 38 39  1  0
 39  2  1  0
 11  6  1  0
 17 12  1  0
 28 22  1  0
 36 29  1  0
 37 15  1  0
  1 40  1  0
  1 41  1  0
  1 42  1  0
  3 43  1  0
  3 44  1  0
  4 45  1  0
  7 46  1  0
  8 47  1  0
  9 48  1  0
 10 49  1  0
 13 50  1  0
 13 51  1  0
 14 52  1  0
 14 53  1  0
 16 54  1  0
 16 55  1  0
 17 56  1  0
 17 57  1  0
 18 58  1  0
 18 59  1  0
 19 60  1  0
 23 61  1  0
 23 62  1  0
 24 63  1  0
 24 64  1  0
 26 65  1  0
 26 66  1  0
 26 67  1  0
 27 68  1  0
 27 69  1  0
 28 70  1  6
 29 71  1  1
 30 72  1  0
 30 73  1  0
 31 74  1  0
 31 75  1  0
 33 76  1  0
 33 77  1  0
 33 78  1  0
 34 79  1  0
 35 80  1  0
 35 81  1  0
 36 82  1  0
 36 83  1  0
 37 84  1  0
 37 85  1  0
 38 86  1  0
 38 87  1  0
 39 88  1  0
 39 89  1  0
M  END
$$$$

     RDKit          3D

 89 94  0  0  0  0  0  0  0  0999 V2000
    5.2843    1.9777    3.8997 C   0  0  0  0  0  0  0  0  0  0  0  0
    5.7549    1.1016    2.8313 N   0  0  0  0  0  0  0  0  0  0  0  0
    5.4653    1.6894    1.5133 C   0  0  0  0  0  0  0  0  0  0  0  0
    5.6796    0.7416    0.3693 C   0  0  0  0  0  0  0  0  0  0  0  0
    5.8200   -0.5864    0.5309 C   0  0  0  0  0  0  0  0  0  0  0  0
    6.0372   -1.4810   -0.6278 C   0  0  0  0  0  0  0  0  0  0  0  0
    7.2752   -2.1526   -0.6739 C   0  0  0  0  0  0  0  0  0  0  0  0
    7.6153   -2.9626   -1.7539 C   0  0  0  0  0  0  0  0  0  0  0  0
    6.7244   -3.1063   -2.8072 C   0  0  0  0  0  0  0  0  0  0  0  0
    5.4915   -2.4475   -2.7754 C   0  0  0  0  0  0  0  0  0  0  0  0
    5.1046   -1.6330   -1.6921 C   0  0  0  0  0  0  0  0  0  0  0  0
    3.8443   -1.0164   -1.6798 N   0  0  0  0  0  0  0  0  0  0  0  0
    2.9751   -1.3317   -0.5336 C   0  0  0  0  0  0  0  0  0  0  0  0
    1.5476   -1.6184   -0.9970 C   0  0  0  0  0  0  0  0  0  0  0  0
    0.9796   -0.4135   -1.7591 C   0  0  0  0  0  0  0  0  0  0  0  0
    2.0282    0.2807   -2.6519 C   0  0  0  0  0  0  0  0  0  0  0  0
    3.1922   -0.6653   -2.9438 C   0  0  0  0  0  0  0  0  0  0  0  0
   -0.3660   -0.7385   -2.4734 C   0  0  0  0  0  0  0  0  0  0  0  0
   -0.9025    0.6482   -2.0202 C   0  0  0  0  0  0  0  0  0  0  0  0
   -2.4041    0.7222   -1.6302 C   0  0  0  0  0  0  0  0  0  0  0  0
   -3.2645    0.0557   -2.2092 O   0  0  0  0  0  0  0  0  0  0  0  0
   -2.7118    1.5902   -0.5700 N   0  0  0  0  0  0  0  0  0  0  0  0
   -2.3044    2.9855   -0.7732 C   0  0  0  0  0  0  0  0  0  0  0  0
   -3.3729    3.7415   -1.6060 C   0  0  0  0  0  0  0  0  0  0  0  0
   -4.7589    3.6514   -1.0894 N   0  0  0  0  0  0  0  0  0  0  0  0
   -4.9715    4.5444    0.0468 C   0  0  0  0  0  0  0  0  0  0  0  0
   -5.1083    2.2398   -0.7625 C   0  0  0  0  0  0  0  0  0  0  0  0
   -4.0326    1.5171    0.0948 C   0  0  1  0  0  0  0  0  0  0  0  0
   -4.4239    0.1319    0.7045 C   0  0  1  0  0  0  0  0  0  0  0  0
   -5.3068    0.3413    1.9528 C   0  0  0  0  0  0  0  0  0  0  0  0
   -5.5619   -0.9519    2.7385 C   0  0  0  0  0  0  0  0  0  0  0  0
   -5.6655   -2.2050    1.8527 C   0  0  2  0  0  0  0  0  0  0  0  0
   -6.6301   -3.2256    2.4599 C   0  0  0  0  0  0  0  0  0  0  0  0
   -4.3767   -2.8238    1.7753 O   0  0  0  0  0  0  0  0  0  0  0  0
   -6.0934   -1.8298    0.4325 C   0  0  0  0  0  0  0  0  0  0  0  0
   -5.1043   -0.8723   -0.2483 C   0  0  0  0  0  0  0  0  0  0  0  0
    0.1572    0.5838   -0.8860 C   0  0  0  0  0  0  0  0  0  0  0  0
    5.7765   -1.1982    1.9070 C   0  0  0  0  0  0  0  0  0  0  0  0
    5.1640   -0.2394    2.9437 C   0  0  0  0  0  0  0  0  0  0  0  0
    4.1966    2.1111    3.8787 H   0  0  0  0  0  0  0  0  0  0  0  0
    5.5616    1.5722    4.8790 H   0  0  0  0  0  0  0  0  0  0  0  0
    5.7546    2.9644    3.8239 H   0  0  0  0  0  0  0  0  0  0  0  0
    4.4288    2.0478    1.4595 H   0  0  0  0  0  0  0  0  0  0  0  0
    6.1209    2.5560    1.3666 H   0  0  0  0  0  0  0  0  0  0  0  0
    5.6960    1.1744   -0.6276 H   0  0  0  0  0  0  0  0  0  0  0  0
    7.9971   -2.0223    0.1295 H   0  0  0  0  0  0  0  0  0  0  0  0
    8.5768   -3.4675   -1.7754 H   0  0  0  0  0  0  0  0  0  0  0  0
    6.9808   -3.7334   -3.6567 H   0  0  0  0  0  0  0  0  0  0  0  0
    4.8186   -2.6091   -3.6120 H   0  0  0  0  0  0  0  0  0  0  0  0
    2.9648   -0.4776    0.1532 H   0  0  0  0  0  0  0  0  0  0  0  0
    3.3344   -2.2077    0.0204 H   0  0  0  0  0  0  0  0  0  0  0  0
    0.9202   -1.8723   -0.1345 H   0  0  0  0  0  0  0  0  0  0  0  0
    1.5512   -2.5029   -1.6478 H   0  0  0  0  0  0  0  0  0  0  0  0
    2.4209    1.1709   -2.1433 H   0  0  0  0  0  0  0  0  0  0  0  0
    1.5851    0.6239   -3.5938 H   0  0  0  0  0  0  0  0  0  0  0  0
    3.9015   -0.1527   -3.6048 H   0  0  0  0  0  0  0  0  0  0  0  0
    2.8253   -1.5596   -3.4620 H   0  0  0  0  0  0  0  0  0  0  0  0
   -0.3122   -0.8887   -3.5560 H   0  0  0  0  0  0  0  0  0  0  0  0
   -0.9141   -1.5853   -2.0405 H   0  0  0  0  0  0  0  0  0  0  0  0
   -0.6622    1.4184   -2.7681 H   0  0  0  0  0  0  0  0  0  0  0  0
   -2.1759    3.4501    0.2110 H   0  0  0  0  0  0  0  0  0  0  0  0
   -1.3422    3.0465   -1.2885 H   0  0  0  0  0  0  0  0  0  0  0  0
   -3.0765    4.7915   -1.7181 H   0  0  0  0  0  0  0  0  0  0  0  0
   -3.3777    3.3256   -2.6221 H   0  0  0  0  0  0  0  0  0  0  0  0
   -4.7995    5.5845   -0.2522 H   0  0  0  0  0  0  0  0  0  0  0  0
   -4.3205    4.3272    0.8989 H   0  0  0  0  0  0  0  0  0  0  0  0
   -6.0112    4.4893    0.3882 H   0  0  0  0  0  0  0  0  0  0  0  0
   -6.0847    2.2092   -0.2653 H   0  0  0  0  0  0  0  0  0  0  0  0
   -5.2397    1.7185   -1.7175 H   0  0  0  0  0  0  0  0  0  0  0  0
   -3.8770    2.1431    0.9848 H   0  0  0  0  0  0  0  0  0  0  0  0
   -3.4909   -0.3303    1.0586 H   0  0  0  0  0  0  0  0  0  0  0  0
   -4.8525    1.0702    2.6351 H   0  0  0  0  0  0  0  0  0  0  0  0
   -6.2714    0.7675    1.6483 H   0  0  0  0  0  0  0  0  0  0  0  0
   -6.4842   -0.8066    3.3149 H   0  0  0  0  0  0  0  0  0  0  0  0
   -4.7541   -1.0812    3.4702 H   0  0  0  0  0  0  0  0  0  0  0  0
   -6.3144   -3.5077    3.4709 H   0  0  0  0  0  0  0  0  0  0  0  0
   -7.6512   -2.8341    2.5134 H   0  0  0  0  0  0  0  0  0  0  0  0
   -6.6430   -4.1488    1.8694 H   0  0  0  0  0  0  0  0  0  0  0  0
   -4.1328   -3.1289    2.6655 H   0  0  0  0  0  0  0  0  0  0  0  0
   -7.0875   -1.3645    0.4563 H   0  0  0  0  0  0  0  0  0  0  0  0
   -6.1811   -2.7276   -0.1925 H   0  0  0  0  0  0  0  0  0  0  0  0
   -5.6368   -0.3700   -1.0611 H   0  0  0  0  0  0  0  0  0  0  0  0
   -4.3250   -1.4847   -0.7171 H   0  0  0  0  0  0  0  0  0  0  0  0
   -0.2258    0.1588    0.0505 H   0  0  0  0  0  0  0  0  0  0  0  0
    0.6456    1.5336   -0.6480 H   0  0  0  0  0  0  0  0  0  0  0  0
    5.1849   -2.1216    1.8959 H   0  0  0  0  0  0  0  0  0  0  0  0
    6.7946   -1.4640    2.2180 H   0  0  0  0  0  0  0  0  0  0  0  0
    5.3534   -0.6542    3.9414 H   0  0  0  0  0  0  0  0  0  0  0  0
    4.0738   -0.1961    2.8139 H   0  0  0  0  0  0  0  0  0  0  0  0
  1  2  1  0
  2  3  1  0
  3  4  1  0
  4  5  2  0
  5  6  1  0
  6  7  2  0
  7  8  1  0
  8  9  2  0
  9 10  1  0
 10 11  2  0
 11 12  1  0
 12 13  1  0
 13 14  1  0
 14 15  1  0
 15 16  1  0
 16 17  1  0
 15 18  1  0
 18 19  1  0
 19 20  1  0
 20 21  2  0
 20 22  1  0
 22 23  1  0
 23 24  1  0
 24 25  1  0
 25 26  1  0
 25 27  1  0
 27 28  1  0
 28 29  1  0
 29 30  1  0
 30 31  1  0
 31 32  1  0
 32 33  1  0
 32 34  1  6
 32 35  1  0
 35 36  1  0
 19 37  1  0
  5 38  1  0
 38 39  1  0
 39  2  1  0
 11  6  1  0
 17 12  1  0
 28 22  1  0
 36 29  1  0
 37 15  1  0
  1 40  1  0
  1 41  1  0
  1 42  1  0
  3 43  1  0
  3 44  1  0
  4 45  1  0
  7 46  1  0
  8 47  1  0
  9 48  1  0
 10 49  1  0
 13 50  1  0
 13 51  1  0
 14 52  1  0
 14 53  1  0
 16 54  1  0
 16 55  1  0
 17 56  1  0
 17 57  1  0
 18 58  1  0
 18 59  1  0
 19 60  1  0
 23 61  1  0
 23 62  1  0
 24 63  1  0
 24 64  1  0
 26 65  1  0
 26 66  1  0
 26 67  1  0
 27 68  1  0
 27 69  1  0
 28 70  1  1
 29 71  1  1
 30 72  1  0
 30 73  1  0
 31 74  1  0
 31 75  1  0
 33 76  1  0
 33 77  1  0
 33 78  1  0
 34 79  1  0
 35 80  1  0
 35 81  1  0
 36 82  1  0
 36 83  1  0
 37 84  1  0
 37 85  1  0
 38 86  1  0
 38 87  1  0
 39 88  1  0
 39 89  1  0
M  END
$$$$

     RDKit          3D

 89 94  0  0  0  0  0  0  0  0999 V2000
    8.4437    3.4553    1.0824 C   0  0  0  0  0  0  0  0  0  0  0  0
    7.4670    2.3850    0.9034 N   0  0  0  0  0  0  0  0  0  0  0  0
    7.0049    1.8822    2.2063 C   0  0  0  0  0  0  0  0  0  0  0  0
    6.1903    0.6232    2.1108 C   0  0  0  0  0  0  0  0  0  0  0  0
    6.1429   -0.1344    0.9996 C   0  0  0  0  0  0  0  0  0  0  0  0
    5.3279   -1.3675    0.9384 C   0  0  0  0  0  0  0  0  0  0  0  0
    5.7378   -2.4270    1.7748 C   0  0  0  0  0  0  0  0  0  0  0  0
    5.1050   -3.6653    1.7301 C   0  0  0  0  0  0  0  0  0  0  0  0
    4.0603   -3.8635    0.8407 C   0  0  0  0  0  0  0  0  0  0  0  0
    3.6417   -2.8199    0.0086 C   0  0  0  0  0  0  0  0  0  0  0  0
    4.2405   -1.5447    0.0393 C   0  0  0  0  0  0  0  0  0  0  0  0
    3.7562   -0.5112   -0.7711 N   0  0  0  0  0  0  0  0  0  0  0  0
    3.3838    0.7446   -0.0966 C   0  0  0  0  0  0  0  0  0  0  0  0
    2.0992    1.3433   -0.6826 C   0  0  0  0  0  0  0  0  0  0  0  0
    1.0786    0.2302   -0.9470 C   0  0  0  0  0  0  0  0  0  0  0  0
    1.6031   -0.7797   -1.9806 C   0  0  0  0  0  0  0  0  0  0  0  0
    3.1322   -0.7818   -2.0614 C   0  0  0  0  0  0  0  0  0  0  0  0
   -0.3541    0.7515   -1.2764 C   0  0  0  0  0  0  0  0  0  0  0  0
   -0.7506    0.5274    0.1975 C   0  0  0  0  0  0  0  0  0  0  0  0
   -2.1441    0.0412    0.6463 C   0  0  0  0  0  0  0  0  0  0  0  0
   -2.5131    0.2355    1.8142 O   0  0  0  0  0  0  0  0  0  0  0  0
   -3.0248   -0.5037   -0.3090 N   0  0  0  0  0  0  0  0  0  0  0  0
   -2.5529   -1.6384   -1.1185 C   0  0  0  0  0  0  0  0  0  0  0  0
   -3.2956   -2.9654   -0.7943 C   0  0  0  0  0  0  0  0  0  0  0  0
   -3.7194   -3.0294    0.6096 N   0  0  0  0  0  0  0  0  0  0  0  0
   -4.2986   -4.3195    0.9592 C   0  0  0  0  0  0  0  0  0  0  0  0
   -4.6298   -1.9068    0.9612 C   0  0  0  0  0  0  0  0  0  0  0  0
   -4.4520   -0.6487    0.0519 C   0  0  1  0  0  0  0  0  0  0  0  0
   -5.1514    0.6422    0.5832 C   0  0  1  0  0  0  0  0  0  0  0  0
   -4.7881    1.8652   -0.2951 C   0  0  0  0  0  0  0  0  0  0  0  0
   -5.8380    2.9670   -0.2018 C   0  0  0  0  0  0  0  0  0  0  0  0
   -7.2039    2.5016   -0.7394 C   0  0  2  0  0  0  0  0  0  0  0  0
   -7.3742    2.8651   -2.2174 C   0  0  0  0  0  0  0  0  0  0  0  0
   -8.2037    3.2160   -0.0041 O   0  0  0  0  0  0  0  0  0  0  0  0
   -7.4215    0.9891   -0.5354 C   0  0  0  0  0  0  0  0  0  0  0  0
   -6.6873    0.4834    0.7059 C   0  0  0  0  0  0  0  0  0  0  0  0
    0.4666   -0.4101    0.3427 C   0  0  0  0  0  0  0  0  0  0  0  0
    6.9500    0.2322   -0.2205 C   0  0  0  0  0  0  0  0  0  0  0  0
    8.0233    1.2900    0.0942 C   0  0  0  0  0  0  0  0  0  0  0  0
    8.0107    4.2786    1.6613 H   0  0  0  0  0  0  0  0  0  0  0  0
    9.3485    3.1107    1.5959 H   0  0  0  0  0  0  0  0  0  0  0  0
    8.7370    3.8735    0.1131 H   0  0  0  0  0  0  0  0  0  0  0  0
    6.3846    2.6540    2.6774 H   0  0  0  0  0  0  0  0  0  0  0  0
    7.8506    1.6841    2.8778 H   0  0  0  0  0  0  0  0  0  0  0  0
    5.6216    0.3447    2.9937 H   0  0  0  0  0  0  0  0  0  0  0  0
    6.5765   -2.2911    2.4542 H   0  0  0  0  0  0  0  0  0  0  0  0
    5.4350   -4.4715    2.3788 H   0  0  0  0  0  0  0  0  0  0  0  0
    3.5593   -4.8266    0.7936 H   0  0  0  0  0  0  0  0  0  0  0  0
    2.8037   -3.0196   -0.6503 H   0  0  0  0  0  0  0  0  0  0  0  0
    3.2232    0.5780    0.9762 H   0  0  0  0  0  0  0  0  0  0  0  0
    4.1860    1.4827   -0.2000 H   0  0  0  0  0  0  0  0  0  0  0  0
    1.7076    2.1011    0.0062 H   0  0  0  0  0  0  0  0  0  0  0  0
    2.3257    1.8672   -1.6203 H   0  0  0  0  0  0  0  0  0  0  0  0
    1.2194   -0.5360   -2.9796 H   0  0  0  0  0  0  0  0  0  0  0  0
    1.2320   -1.7861   -1.7581 H   0  0  0  0  0  0  0  0  0  0  0  0
    3.4960   -1.7103   -2.5185 H   0  0  0  0  0  0  0  0  0  0  0  0
    3.4470    0.0120   -2.7522 H   0  0  0  0  0  0  0  0  0  0  0  0
   -0.8899    0.1539   -2.0179 H   0  0  0  0  0  0  0  0  0  0  0  0
   -0.4091    1.7949   -1.6066 H   0  0  0  0  0  0  0  0  0  0  0  0
   -0.5488    1.4635    0.7494 H   0  0  0  0  0  0  0  0  0  0  0  0
   -1.4860   -1.8007   -0.9692 H   0  0  0  0  0  0  0  0  0  0  0  0
   -2.7203   -1.3824   -2.1705 H   0  0  0  0  0  0  0  0  0  0  0  0
   -2.6264   -3.7993   -1.0388 H   0  0  0  0  0  0  0  0  0  0  0  0
   -4.1685   -3.0622   -1.4540 H   0  0  0  0  0  0  0  0  0  0  0  0
   -4.5577   -4.3495    2.0233 H   0  0  0  0  0  0  0  0  0  0  0  0
   -3.5760   -5.1247    0.7875 H   0  0  0  0  0  0  0  0  0  0  0  0
   -5.2006   -4.5378    0.3766 H   0  0  0  0  0  0  0  0  0  0  0  0
   -4.4492   -1.6436    2.0097 H   0  0  0  0  0  0  0  0  0  0  0  0
   -5.6717   -2.2386    0.8849 H   0  0  0  0  0  0  0  0  0  0  0  0
   -4.9531   -0.8692   -0.9032 H   0  0  0  0  0  0  0  0  0  0  0  0
   -4.7927    0.8414    1.6000 H   0  0  0  0  0  0  0  0  0  0  0  0
   -4.6772    1.5665   -1.3452 H   0  0  0  0  0  0  0  0  0  0  0  0
   -3.8180    2.2675    0.0190 H   0  0  0  0  0  0  0  0  0  0  0  0
   -5.9289    3.2872    0.8450 H   0  0  0  0  0  0  0  0  0  0  0  0
   -5.4941    3.8541   -0.7480 H   0  0  0  0  0  0  0  0  0  0  0  0
   -7.3203    3.9502   -2.3615 H   0  0  0  0  0  0  0  0  0  0  0  0
   -6.6086    2.3934   -2.8416 H   0  0  0  0  0  0  0  0  0  0  0  0
   -8.3591    2.5536   -2.5841 H   0  0  0  0  0  0  0  0  0  0  0  0
   -9.0754    2.9681   -0.3561 H   0  0  0  0  0  0  0  0  0  0  0  0
   -7.0616    0.4252   -1.4052 H   0  0  0  0  0  0  0  0  0  0  0  0
   -8.4909    0.7692   -0.4304 H   0  0  0  0  0  0  0  0  0  0  0  0
   -7.0336    1.0578    1.5757 H   0  0  0  0  0  0  0  0  0  0  0  0
   -6.9760   -0.5518    0.9044 H   0  0  0  0  0  0  0  0  0  0  0  0
    1.0325   -0.2691    1.2692 H   0  0  0  0  0  0  0  0  0  0  0  0
    0.2341   -1.4773    0.2683 H   0  0  0  0  0  0  0  0  0  0  0  0
    7.4484   -0.6566   -0.6266 H   0  0  0  0  0  0  0  0  0  0  0  0
    6.2874    0.6192   -1.0030 H   0  0  0  0  0  0  0  0  0  0  0  0
    8.8705    0.8184    0.6108 H   0  0  0  0  0  0  0  0  0  0  0  0
    8.4043    1.6787   -0.8584 H   0  0  0  0  0  0  0  0  0  0  0  0
  1  2  1  0
  2  3  1  0
  3  4  1  0
  4  5  2  0
  5  6  1  0
  6  7  2  0
  7  8  1  0
  8  9  2  0
  9 10  1  0
 10 11  2  0
 11 12  1  0
 12 13  1  0
 13 14  1  0
 14 15  1  0
 15 16  1  0
 16 17  1  0
 15 18  1  0
 18 19  1  0
 19 20  1  0
 20 21  2  0
 20 22  1  0
 22 23  1  0
 23 24  1  0
 24 25  1  0
 25 26  1  0
 25 27  1  0
 27 28  1  0
 28 29  1  0
 29 30  1  0
 30 31  1  0
 31 32  1  0
 32 33  1  0
 32 34  1  1
 32 35  1  0
 35 36  1  0
 19 37  1  0
  5 38  1  0
 38 39  1  0
 39  2  1  0
 11  6  1  0
 17 12  1  0
 28 22  1  0
 36 29  1  0
 37 15  1  0
  1 40  1  0
  1 41  1  0
  1 42  1  0
  3 43  1  0
  3 44  1  0
  4 45  1  0
  7 46  1  0
  8 47  1  0
  9 48  1  0
 10 49  1  0
 13 50  1  0
 13 51  1  0
 14 52  1  0
 14 53  1  0
 16 54  1  0
 16 55  1  0
 17 56  1  0
 17 57  1  0
 18 58  1  0
 18 59  1  0
 19 60  1  0
 23 61  1  0
 23 62  1  0
 24 63  1  0
 24 64  1  0
 26 65  1  0
 26 66  1  0
 26 67  1  0
 27 68  1  0
 27 69  1  0
 28 70  1  6
 29 71  1  1
 30 72  1  0
 30 73  1  0
 31 74  1  0
 31 75  1  0
 33 76  1  0
 33 77  1  0
 33 78  1  0
 34 79  1  0
 35 80  1  0
 35 81  1  0
 36 82  1  0
 36 83  1  0
 37 84  1  0
 37 85  1  0
 38 86  1  0
 38 87  1  0
 39 88  1  0
 39 89  1  0
M  END
$$$$
