
     RDKit          3D

 94100  0  0  0  0  0  0  0  0999 V2000
   10.1864   -2.9586    0.7820 C   0  0  0  0  0  0  0  0  0  0  0  0
    9.2683   -1.8562    0.5096 N   0  0  0  0  0  0  0  0  0  0  0  0
    9.4883   -0.7538    1.4583 C   0  0  0  0  0  0  0  0  0  0  0  0
    8.7420    0.4998    1.0989 C   0  0  0  0  0  0  0  0  0  0  0  0
    8.1833    0.6988   -0.1081 C   0  0  0  0  0  0  0  0  0  0  0  0
    7.4655    1.9508   -0.4141 C   0  0  0  0  0  0  0  0  0  0  0  0
    8.0958    2.8572   -1.2871 C   0  0  0  0  0  0  0  0  0  0  0  0
    7.4973    4.0701   -1.6097 C   0  0  0  0  0  0  0  0  0  0  0  0
    6.2671    4.3904   -1.0568 C   0  0  0  0  0  0  0  0  0  0  0  0
    5.6377    3.4957   -0.1859 C   0  0  0  0  0  0  0  0  0  0  0  0
    6.1989    2.2457    0.1639 C   0  0  0  0  0  0  0  0  0  0  0  0
    5.4515    1.2244    1.1612 C   0  0  0  0  0  0  0  0  0  0  0  0
    4.0050    1.4859    1.6626 C   0  0  0  0  0  0  0  0  0  0  0  0
    3.4689    0.4581    0.6220 C   0  0  0  0  0  0  0  0  0  0  0  0
    2.4693   -0.5598    1.1921 C   0  0  0  0  0  0  0  0  0  0  0  0
    1.0374   -0.1111    0.9246 C   0  0  0  0  0  0  0  0  0  0  0  0
    0.7756    0.0332   -0.5068 N   0  0  0  0  0  0  0  0  0  0  0  0
   -0.5001   -0.0357   -1.0757 C   0  0  0  0  0  0  0  0  0  0  0  0
   -0.6450    0.0036   -2.3040 O   0  0  0  0  0  0  0  0  0  0  0  0
   -1.7068   -0.1513   -0.0983 C   0  0  0  0  0  0  0  0  0  0  0  0
   -3.1213    0.1626   -0.6595 C   0  0  0  0  0  0  0  0  0  0  0  0
   -3.6829   -1.0098    0.2055 C   0  0  0  0  0  0  0  0  0  0  0  0
   -4.1893   -0.6025    1.6020 C   0  0  0  0  0  0  0  0  0  0  0  0
   -5.7240   -0.5772    1.6673 C   0  0  0  0  0  0  0  0  0  0  0  0
   -6.2972   -0.1494    0.3936 N   0  0  0  0  0  0  0  0  0  0  0  0
   -7.6931    0.3158    0.4968 C   0  0  1  0  0  0  0  0  0  0  0  0
   -8.2031    1.0008   -0.7941 C   0  0  0  0  0  0  0  0  0  0  0  0
   -9.1728    0.1236   -1.5839 C   0  0  0  0  0  0  0  0  0  0  0  0
  -10.4210   -0.2342   -0.7541 C   0  0  2  0  0  0  0  0  0  0  0  0
  -11.0509   -1.5212   -1.2953 C   0  0  0  0  0  0  0  0  0  0  0  0
  -11.3775    0.8174   -0.9310 O   0  0  0  0  0  0  0  0  0  0  0  0
  -10.1216   -0.3420    0.7543 C   0  0  0  0  0  0  0  0  0  0  0  0
   -8.6778   -0.7537    1.0226 C   0  0  0  0  0  0  0  0  0  0  0  0
   -6.0234   -1.1020   -0.6916 C   0  0  0  0  0  0  0  0  0  0  0  0
   -4.7097   -1.8805   -0.5137 C   0  0  0  0  0  0  0  0  0  0  0  0
   -2.2341   -1.5797    0.2009 C   0  0  0  0  0  0  0  0  0  0  0  0
    1.9332    0.2452   -1.3770 C   0  0  0  0  0  0  0  0  0  0  0  0
    2.9829    1.1111   -0.6876 C   0  0  0  0  0  0  0  0  0  0  0  0
    4.9166   -0.1082    0.5632 C   0  0  0  0  0  0  0  0  0  0  0  0
    8.3393   -0.3232   -1.2066 C   0  0  0  0  0  0  0  0  0  0  0  0
    9.4078   -1.3810   -0.8743 C   0  0  0  0  0  0  0  0  0  0  0  0
   10.0548   -3.3249    1.8063 H   0  0  0  0  0  0  0  0  0  0  0  0
    9.9787   -3.8044    0.1172 H   0  0  0  0  0  0  0  0  0  0  0  0
   11.2351   -2.6681    0.6512 H   0  0  0  0  0  0  0  0  0  0  0  0
   10.5540   -0.5016    1.5348 H   0  0  0  0  0  0  0  0  0  0  0  0
    9.1536   -1.0758    2.4517 H   0  0  0  0  0  0  0  0  0  0  0  0
    8.6741    1.2610    1.8714 H   0  0  0  0  0  0  0  0  0  0  0  0
    9.0692    2.6212   -1.7114 H   0  0  0  0  0  0  0  0  0  0  0  0
    7.9932    4.7627   -2.2837 H   0  0  0  0  0  0  0  0  0  0  0  0
    5.7909    5.3374   -1.2977 H   0  0  0  0  0  0  0  0  0  0  0  0
    4.6758    3.7916    0.2245 H   0  0  0  0  0  0  0  0  0  0  0  0
    6.1049    1.0449    2.0278 H   0  0  0  0  0  0  0  0  0  0  0  0
    3.6130    2.5026    1.5860 H   0  0  0  0  0  0  0  0  0  0  0  0
    3.8692    1.1794    2.7087 H   0  0  0  0  0  0  0  0  0  0  0  0
    2.6213   -0.7073    2.2675 H   0  0  0  0  0  0  0  0  0  0  0  0
    2.6281   -1.5376    0.7181 H   0  0  0  0  0  0  0  0  0  0  0  0
    0.8437    0.8623    1.3897 H   0  0  0  0  0  0  0  0  0  0  0  0
    0.3419   -0.8376    1.3540 H   0  0  0  0  0  0  0  0  0  0  0  0
   -1.5437    0.4294    0.8209 H   0  0  0  0  0  0  0  0  0  0  0  0
   -3.5032    1.1610   -0.4244 H   0  0  0  0  0  0  0  0  0  0  0  0
   -3.2197    0.0096   -1.7413 H   0  0  0  0  0  0  0  0  0  0  0  0
   -3.8306   -1.3113    2.3585 H   0  0  0  0  0  0  0  0  0  0  0  0
   -3.7937    0.3820    1.8805 H   0  0  0  0  0  0  0  0  0  0  0  0
   -6.0111    0.0992    2.4819 H   0  0  0  0  0  0  0  0  0  0  0  0
   -6.0992   -1.5720    1.9414 H   0  0  0  0  0  0  0  0  0  0  0  0
   -7.6792    1.1230    1.2441 H   0  0  0  0  0  0  0  0  0  0  0  0
   -8.7188    1.9309   -0.5179 H   0  0  0  0  0  0  0  0  0  0  0  0
   -7.3706    1.3160   -1.4343 H   0  0  0  0  0  0  0  0  0  0  0  0
   -8.6488   -0.7853   -1.9010 H   0  0  0  0  0  0  0  0  0  0  0  0
   -9.4672    0.6554   -2.4972 H   0  0  0  0  0  0  0  0  0  0  0  0
  -11.9909   -1.7465   -0.7787 H   0  0  0  0  0  0  0  0  0  0  0  0
  -11.3009   -1.4140   -2.3571 H   0  0  0  0  0  0  0  0  0  0  0  0
  -10.3799   -2.3786   -1.1808 H   0  0  0  0  0  0  0  0  0  0  0  0
  -12.1782    0.5831   -0.4310 H   0  0  0  0  0  0  0  0  0  0  0  0
  -10.3160    0.6192    1.2490 H   0  0  0  0  0  0  0  0  0  0  0  0
  -10.8039   -1.0575    1.2297 H   0  0  0  0  0  0  0  0  0  0  0  0
   -8.5340   -0.8877    2.1017 H   0  0  0  0  0  0  0  0  0  0  0  0
   -8.4992   -1.7321    0.5634 H   0  0  0  0  0  0  0  0  0  0  0  0
   -6.8234   -1.8399   -0.8106 H   0  0  0  0  0  0  0  0  0  0  0  0
   -5.9640   -0.5431   -1.6328 H   0  0  0  0  0  0  0  0  0  0  0  0
   -4.3449   -2.2082   -1.4946 H   0  0  0  0  0  0  0  0  0  0  0  0
   -4.8946   -2.7900    0.0726 H   0  0  0  0  0  0  0  0  0  0  0  0
   -2.0324   -2.2990   -0.6029 H   0  0  0  0  0  0  0  0  0  0  0  0
   -1.8858   -2.0183    1.1409 H   0  0  0  0  0  0  0  0  0  0  0  0
    2.3416   -0.7417   -1.6244 H   0  0  0  0  0  0  0  0  0  0  0  0
    1.6239    0.7192   -2.3144 H   0  0  0  0  0  0  0  0  0  0  0  0
    2.5321    2.0878   -0.4689 H   0  0  0  0  0  0  0  0  0  0  0  0
    3.8144    1.2917   -1.3774 H   0  0  0  0  0  0  0  0  0  0  0  0
    5.2682   -0.3748   -0.4372 H   0  0  0  0  0  0  0  0  0  0  0  0
    5.0988   -0.9680    1.2207 H   0  0  0  0  0  0  0  0  0  0  0  0
    7.3759   -0.8224   -1.3652 H   0  0  0  0  0  0  0  0  0  0  0  0
    8.6137    0.1558   -2.1537 H   0  0  0  0  0  0  0  0  0  0  0  0
    9.2872   -2.2155   -1.5762 H   0  0  0  0  0  0  0  0  0  0  0  0
   10.4098   -0.9623   -1.0415 H   0  0  0  0  0  0  0  0  0  0  0  0
  1  2  1  0
  2  3  1  0
  3  4  1  0
  4  5  2  0
  5  6  1  0
  6  7  2  0
  7  8  1  0
  8  9  2  0
  9 10  1  0
 10 11  2  0
 11 12  1  0
 12 13  1  0
 13 14  1  0
 14 15  1  0
 15 16  1  0
 16 17  1  0
 17 18  1  0
 18 19  2  0
 18 20  1  0
 20 21  1  0
 21 22  1  0
 22 23  1  0
 23 24  1  0
 24 25  1  0
 25 26  1  0
 26 27  1  0
 27 28  1  0
 28 29  1  0
 29 30  1  0
 29 31  1  1
 29 32  1  0
 32 33  1  0
 25 34  1  0
 34 35  1  0
 22 36  1  0
 17 37  1  0
 37 38  1  0
 14 39  1  0
  5 40  1  0
 40 41  1  0
 41  2  1  0
 11  6  1  0
 39 12  1  0
 38 14  1  0
 36 20  1  0
 35 22  1  0
 33 26  1  0
  1 42  1  0
  1 43  1  0
  1 44  1  0
  3 45  1  0
  3 46  1  0
  4 47  1  0
  7 48  1  0
  8 49  1  0
  9 50  1  0
 10 51  1  0
 12 52  1  0
 13 53  1  0
 13 54  1  0
 15 55  1  0
 15 56  1  0
 16 57  1  0
 16 58  1  0
 20 59  1  0
 21 60  1  0
 21 61  1  0
 23 62  1  0
 23 63  1  0
 24 64  1  0
 24 65  1  0
 26 66  1  1
 27 67  1  0
 27 68  1  0
 28 69  1  0
 28 70  1  0
 30 71  1  0
 30 72  1  0
 30 73  1  0
 31 74  1  0
 32 75  1  0
 32 76  1  0
 33 77  1  0
 33 78  1  0
 34 79  1  0
 34 80  1  0
 35 81  1  0
 35 82  1  0
 36 83  1  0
 36 84  1  0
 37 85  1  0
 37 86  1  0
 38 87  1  0
 38 88  1  0
 39 89  1  0
 39 90  1  0
 40 91  1  0
 40 92  1  0
 41 93  1  0
 41 94  1  0
M  END
$$$$

     RDKit          3D

 94100  0  0  0  0  0  0  0  0999 V2000
    9.9639   -3.1143    1.0755 C   0  0  0  0  0  0  0  0  0  0  0  0
    8.5150   -3.3005    1.1435 N   0  0  0  0  0  0  0  0  0  0  0  0
    7.8591   -2.8937   -0.1092 C   0  0  0  0  0  0  0  0  0  0  0  0
    7.5809   -1.4218   -0.2394 C   0  0  0  0  0  0  0  0  0  0  0  0
    7.6348   -0.5730    0.8016 C   0  0  0  0  0  0  0  0  0  0  0  0
    7.3590    0.8613    0.6239 C   0  0  0  0  0  0  0  0  0  0  0  0
    8.4466    1.6882    0.2914 C   0  0  0  0  0  0  0  0  0  0  0  0
    8.2677    3.0551    0.1136 C   0  0  0  0  0  0  0  0  0  0  0  0
    7.0024    3.6022    0.2676 C   0  0  0  0  0  0  0  0  0  0  0  0
    5.9184    2.7806    0.5945 C   0  0  0  0  0  0  0  0  0  0  0  0
    6.0467    1.3852    0.7775 C   0  0  0  0  0  0  0  0  0  0  0  0
    4.7950    0.4445    1.1471 C   0  0  0  0  0  0  0  0  0  0  0  0
    3.3753    1.0268    1.3693 C   0  0  0  0  0  0  0  0  0  0  0  0
    2.9471    0.5111   -0.0368 C   0  0  0  0  0  0  0  0  0  0  0  0
    3.0069    1.5958   -1.1281 C   0  0  0  0  0  0  0  0  0  0  0  0
    2.1113    1.2307   -2.3078 C   0  0  0  0  0  0  0  0  0  0  0  0
    0.7094    1.0770   -1.9020 N   0  0  0  0  0  0  0  0  0  0  0  0
   -0.2713    1.2798   -2.8825 C   0  0  0  0  0  0  0  0  0  0  0  0
    0.0857    1.5092   -4.0525 O   0  0  0  0  0  0  0  0  0  0  0  0
   -1.7747    1.2488   -2.5662 C   0  0  0  0  0  0  0  0  0  0  0  0
   -2.4788   -0.0847   -2.2418 C   0  0  0  0  0  0  0  0  0  0  0  0
   -3.4459    0.6890   -1.2927 C   0  0  0  0  0  0  0  0  0  0  0  0
   -3.6404   -0.0168    0.0555 C   0  0  0  0  0  0  0  0  0  0  0  0
   -4.9185    0.4846    0.7281 C   0  0  0  0  0  0  0  0  0  0  0  0
   -6.1416    0.1830   -0.0462 N   0  0  0  0  0  0  0  0  0  0  0  0
   -6.9065   -0.9732    0.4865 C   0  0  1  0  0  0  0  0  0  0  0  0
   -7.4094   -0.6313    1.9196 C   0  0  0  0  0  0  0  0  0  0  0  0
   -8.7703   -1.2377    2.2469 C   0  0  0  0  0  0  0  0  0  0  0  0
   -9.8648   -0.7484    1.2794 C   0  0  2  0  0  0  0  0  0  0  0  0
  -10.5041    0.5539    1.7664 C   0  0  0  0  0  0  0  0  0  0  0  0
  -10.9088   -1.7303    1.2783 O   0  0  0  0  0  0  0  0  0  0  0  0
   -9.3406   -0.5767   -0.1601 C   0  0  0  0  0  0  0  0  0  0  0  0
   -8.0996   -1.4356   -0.3927 C   0  0  0  0  0  0  0  0  0  0  0  0
   -5.8807    0.1150   -1.4957 C   0  0  0  0  0  0  0  0  0  0  0  0
   -4.7862    1.0904   -1.9326 C   0  0  0  0  0  0  0  0  0  0  0  0
   -2.4028    1.8530   -1.2952 C   0  0  0  0  0  0  0  0  0  0  0  0
    0.4831    0.6201   -0.5314 C   0  0  0  0  0  0  0  0  0  0  0  0
    1.6241   -0.2712   -0.0501 C   0  0  0  0  0  0  0  0  0  0  0  0
    4.1872   -0.4256    0.0129 C   0  0  0  0  0  0  0  0  0  0  0  0
    7.9803   -1.0534    2.1863 C   0  0  0  0  0  0  0  0  0  0  0  0
    7.9228   -2.5891    2.2892 C   0  0  0  0  0  0  0  0  0  0  0  0
   10.2604   -2.0786    0.8789 H   0  0  0  0  0  0  0  0  0  0  0  0
   10.3897   -3.7430    0.2854 H   0  0  0  0  0  0  0  0  0  0  0  0
   10.4354   -3.4337    2.0117 H   0  0  0  0  0  0  0  0  0  0  0  0
    6.9002   -3.4221   -0.1846 H   0  0  0  0  0  0  0  0  0  0  0  0
    8.4491   -3.2294   -0.9711 H   0  0  0  0  0  0  0  0  0  0  0  0
    7.3137   -1.0645   -1.2305 H   0  0  0  0  0  0  0  0  0  0  0  0
    9.4402    1.2618    0.1717 H   0  0  0  0  0  0  0  0  0  0  0  0
    9.1123    3.6885   -0.1426 H   0  0  0  0  0  0  0  0  0  0  0  0
    6.8509    4.6702    0.1326 H   0  0  0  0  0  0  0  0  0  0  0  0
    4.9460    3.2544    0.7013 H   0  0  0  0  0  0  0  0  0  0  0  0
    5.0682   -0.1728    2.0162 H   0  0  0  0  0  0  0  0  0  0  0  0
    3.2911    2.1033    1.5376 H   0  0  0  0  0  0  0  0  0  0  0  0
    2.8560    0.5406    2.2061 H   0  0  0  0  0  0  0  0  0  0  0  0
    4.0312    1.7499   -1.4837 H   0  0  0  0  0  0  0  0  0  0  0  0
    2.6644    2.5545   -0.7174 H   0  0  0  0  0  0  0  0  0  0  0  0
    2.1941    2.0045   -3.0789 H   0  0  0  0  0  0  0  0  0  0  0  0
    2.4267    0.2804   -2.7555 H   0  0  0  0  0  0  0  0  0  0  0  0
   -2.2861    1.7057   -3.4345 H   0  0  0  0  0  0  0  0  0  0  0  0
   -1.8487   -0.8347   -1.7533 H   0  0  0  0  0  0  0  0  0  0  0  0
   -2.9513   -0.5735   -3.1009 H   0  0  0  0  0  0  0  0  0  0  0  0
   -2.7817    0.1508    0.7156 H   0  0  0  0  0  0  0  0  0  0  0  0
   -3.7126   -1.1030   -0.0877 H   0  0  0  0  0  0  0  0  0  0  0  0
   -4.8592    1.5746    0.8439 H   0  0  0  0  0  0  0  0  0  0  0  0
   -4.9576    0.0856    1.7463 H   0  0  0  0  0  0  0  0  0  0  0  0
   -6.2226   -1.8309    0.5508 H   0  0  0  0  0  0  0  0  0  0  0  0
   -6.6782   -0.9843    2.6571 H   0  0  0  0  0  0  0  0  0  0  0  0
   -7.4812    0.4563    2.0542 H   0  0  0  0  0  0  0  0  0  0  0  0
   -8.6933   -2.3329    2.2176 H   0  0  0  0  0  0  0  0  0  0  0  0
   -9.0449   -0.9999    3.2822 H   0  0  0  0  0  0  0  0  0  0  0  0
  -11.3150    0.8619    1.0960 H   0  0  0  0  0  0  0  0  0  0  0  0
  -10.9564    0.4218    2.7560 H   0  0  0  0  0  0  0  0  0  0  0  0
   -9.7759    1.3690    1.8249 H   0  0  0  0  0  0  0  0  0  0  0  0
  -10.5557   -2.5464    0.8855 H   0  0  0  0  0  0  0  0  0  0  0  0
   -9.0812    0.4704   -0.3601 H   0  0  0  0  0  0  0  0  0  0  0  0
  -10.1154   -0.8598   -0.8828 H   0  0  0  0  0  0  0  0  0  0  0  0
   -8.3340   -2.4810   -0.1493 H   0  0  0  0  0  0  0  0  0  0  0  0
   -7.8520   -1.4554   -1.4578 H   0  0  0  0  0  0  0  0  0  0  0  0
   -5.5862   -0.9006   -1.7913 H   0  0  0  0  0  0  0  0  0  0  0  0
   -6.7960    0.3768   -2.0380 H   0  0  0  0  0  0  0  0  0  0  0  0
   -5.0690    2.1064   -1.6269 H   0  0  0  0  0  0  0  0  0  0  0  0
   -4.7152    1.1044   -3.0265 H   0  0  0  0  0  0  0  0  0  0  0  0
   -1.7672    1.8974   -0.4091 H   0  0  0  0  0  0  0  0  0  0  0  0
   -2.8158    2.8586   -1.4338 H   0  0  0  0  0  0  0  0  0  0  0  0
   -0.4505    0.0669   -0.4587 H   0  0  0  0  0  0  0  0  0  0  0  0
    0.4073    1.5120    0.1008 H   0  0  0  0  0  0  0  0  0  0  0  0
    1.3919   -0.6755    0.9417 H   0  0  0  0  0  0  0  0  0  0  0  0
    1.7084   -1.1315   -0.7274 H   0  0  0  0  0  0  0  0  0  0  0  0
    3.9733   -1.4516    0.3387 H   0  0  0  0  0  0  0  0  0  0  0  0
    4.7624   -0.4855   -0.9161 H   0  0  0  0  0  0  0  0  0  0  0  0
    7.2921   -0.6293    2.9268 H   0  0  0  0  0  0  0  0  0  0  0  0
    8.9871   -0.7026    2.4453 H   0  0  0  0  0  0  0  0  0  0  0  0
    6.8727   -2.9000    2.3793 H   0  0  0  0  0  0  0  0  0  0  0  0
    8.4006   -2.9123    3.2224 H   0  0  0  0  0  0  0  0  0  0  0  0
  1  2  1  0
  2  3  1  0
  3  4  1  0
  4  5  2  0
  5  6  1  0
  6  7  2  0
  7  8  1  0
  8  9  2  0
  9 10  1  0
 10 11  2  0
 11 12  1  0
 12 13  1  0
 13 14  1  0
 14 15  1  0
 15 16  1  0
 16 17  1  0
 17 18  1  0
 18 19  2  0
 18 20  1  0
 20 21  1  0
 21 22  1  0
 22 23  1  0
 23 24  1  0
 24 25  1  0
 25 26  1  0
 26 27  1  0
 27 28  1  0
 28 29  1  0
 29 30  1  0
 29 31  1  6
 29 32  1  0
 32 33  1  0
 25 34  1  0
 34 35  1  0
 22 36  1  0
 17 37  1  0
 37 38  1  0
 14 39  1  0
  5 40  1  0
 40 41  1  0
 41  2  1  0
 11  6  1  0
 39 12  1  0
 38 14  1  0
 36 20  1  0
 35 22  1  0
 33 26  1  0
  1 42  1  0
  1 43  1  0
  1 44  1  0
  3 45  1  0
  3 46  1  0
  4 47  1  0
  7 48  1  0
  8 49  1  0
  9 50  1  0
 10 51  1  0
 12 52  1  0
 13 53  1  0
 13 54  1  0
 15 55  1  0
 15 56  1  0
 16 57  1  0
 16 58  1  0
 20 59  1  0
 21 60  1  0
 21 61  1  0
 23 62  1  0
 23 63  1  0
 24 64  1  0
 24 65  1  0
 26 66  1  1
 27 67  1  0
 27 68  1  0
 28 69  1  0
 28 70  1  0
 30 71  1  0
 30 72  1  0
 30 73  1  0
 31 74  1  0
 32 75  1  0
 32 76  1  0
 33 77  1  0
 33 78  1  0
 34 79  1  0
 34 80  1  0
 35 81  1  0
 35 82  1  0
 36 83  1  0
 36 84  1  0
 37 85  1  0
 37 86  1  0
 38 87  1  0
 38 88  1  0
 39 89  1  0
 39 90  1  0
 40 91  1  0
 40 92  1  0
 41 93  1  0
 41 94  1  0
M  END
$$$$

     RDKit          3D

 94100  0  0  0  0  0  0  0  0999 V2000
   -7.2723   -2.7119    2.6017 C   0  0  0  0  0  0  0  0  0  0  0  0
   -6.9721   -1.7587    1.5369 N   0  0  0  0  0  0  0  0  0  0  0  0
   -7.6682   -0.4837    1.7741 C   0  0  0  0  0  0  0  0  0  0  0  0
   -7.6025    0.4601    0.6064 C   0  0  0  0  0  0  0  0  0  0  0  0
   -7.2196    0.0724   -0.6230 C   0  0  0  0  0  0  0  0  0  0  0  0
   -7.1600    1.0346   -1.7355 C   0  0  0  0  0  0  0  0  0  0  0  0
   -8.3807    1.4222   -2.3190 C   0  0  0  0  0  0  0  0  0  0  0  0
   -8.4081    2.3079   -3.3910 C   0  0  0  0  0  0  0  0  0  0  0  0
   -7.2159    2.8104   -3.8908 C   0  0  0  0  0  0  0  0  0  0  0  0
   -6.0020    2.4327   -3.3096 C   0  0  0  0  0  0  0  0  0  0  0  0
   -5.9245    1.5493   -2.2077 C   0  0  0  0  0  0  0  0  0  0  0  0
   -4.5099    1.1551   -1.5736 C   0  0  0  0  0  0  0  0  0  0  0  0
   -4.2846    1.3574   -0.0461 C   0  0  0  0  0  0  0  0  0  0  0  0
   -2.7940    1.6993   -0.3458 C   0  0  0  0  0  0  0  0  0  0  0  0
   -2.2765    2.8665    0.5095 C   0  0  0  0  0  0  0  0  0  0  0  0
   -0.7532    2.8607    0.5656 C   0  0  0  0  0  0  0  0  0  0  0  0
   -0.2520    1.6203    1.1590 N   0  0  0  0  0  0  0  0  0  0  0  0
    0.9432    1.6537    1.8849 C   0  0  0  0  0  0  0  0  0  0  0  0
    1.5925    2.7036    1.9765 O   0  0  0  0  0  0  0  0  0  0  0  0
    1.3878    0.3317    2.5804 C   0  0  0  0  0  0  0  0  0  0  0  0
    2.6009    0.3952    3.5440 C   0  0  0  0  0  0  0  0  0  0  0  0
    3.5008   -0.2213    2.4361 C   0  0  0  0  0  0  0  0  0  0  0  0
    4.3149    0.8123    1.6356 C   0  0  0  0  0  0  0  0  0  0  0  0
    5.5373    0.1757    0.9558 C   0  0  0  0  0  0  0  0  0  0  0  0
    5.2552   -1.2020    0.5631 N   0  0  0  0  0  0  0  0  0  0  0  0
    6.1611   -1.7894   -0.4398 C   0  0  1  0  0  0  0  0  0  0  0  0
    5.9221   -1.1770   -1.8420 C   0  0  0  0  0  0  0  0  0  0  0  0
    7.1076   -0.3572   -2.3503 C   0  0  0  0  0  0  0  0  0  0  0  0
    8.4017   -1.1886   -2.4071 C   0  0  2  0  0  0  0  0  0  0  0  0
    9.6131   -0.2531   -2.4689 C   0  0  0  0  0  0  0  0  0  0  0  0
    8.3807   -1.9432   -3.6243 O   0  0  0  0  0  0  0  0  0  0  0  0
    8.5202   -2.1860   -1.2378 C   0  0  0  0  0  0  0  0  0  0  0  0
    7.6541   -1.7828   -0.0472 C   0  0  0  0  0  0  0  0  0  0  0  0
    5.0431   -2.0741    1.7270 C   0  0  0  0  0  0  0  0  0  0  0  0
    4.3968   -1.3593    2.9236 C   0  0  0  0  0  0  0  0  0  0  0  0
    2.1899   -0.6925    1.7391 C   0  0  0  0  0  0  0  0  0  0  0  0
   -1.0555    0.4138    0.9554 C   0  0  0  0  0  0  0  0  0  0  0  0
   -1.8453    0.4849   -0.3474 C   0  0  0  0  0  0  0  0  0  0  0  0
   -3.2869    2.1000   -1.7717 C   0  0  0  0  0  0  0  0  0  0  0  0
   -6.8713   -1.3649   -0.9089 C   0  0  0  0  0  0  0  0  0  0  0  0
   -7.3301   -2.3061    0.2199 C   0  0  0  0  0  0  0  0  0  0  0  0
   -6.7029   -3.6373    2.4599 H   0  0  0  0  0  0  0  0  0  0  0  0
   -8.3375   -2.9668    2.6433 H   0  0  0  0  0  0  0  0  0  0  0  0
   -6.9758   -2.3068    3.5756 H   0  0  0  0  0  0  0  0  0  0  0  0
   -8.7267   -0.6477    2.0146 H   0  0  0  0  0  0  0  0  0  0  0  0
   -7.2064    0.0102    2.6373 H   0  0  0  0  0  0  0  0  0  0  0  0
   -7.8757    1.4939    0.8004 H   0  0  0  0  0  0  0  0  0  0  0  0
   -9.3182    1.0219   -1.9389 H   0  0  0  0  0  0  0  0  0  0  0  0
   -9.3554    2.5976   -3.8367 H   0  0  0  0  0  0  0  0  0  0  0  0
   -7.2233    3.4969   -4.7334 H   0  0  0  0  0  0  0  0  0  0  0  0
   -5.0854    2.8412   -3.7316 H   0  0  0  0  0  0  0  0  0  0  0  0
   -4.2506    0.1319   -1.8870 H   0  0  0  0  0  0  0  0  0  0  0  0
   -4.8606    2.1899    0.3782 H   0  0  0  0  0  0  0  0  0  0  0  0
   -4.4463    0.4744    0.5795 H   0  0  0  0  0  0  0  0  0  0  0  0
   -2.6336    3.8289    0.1260 H   0  0  0  0  0  0  0  0  0  0  0  0
   -2.6638    2.7730    1.5329 H   0  0  0  0  0  0  0  0  0  0  0  0
   -0.4017    3.7234    1.1411 H   0  0  0  0  0  0  0  0  0  0  0  0
   -0.3256    2.9352   -0.4412 H   0  0  0  0  0  0  0  0  0  0  0  0
    0.5328   -0.1322    3.0930 H   0  0  0  0  0  0  0  0  0  0  0  0
    2.8860    1.3916    3.8956 H   0  0  0  0  0  0  0  0  0  0  0  0
    2.4720   -0.2408    4.4292 H   0  0  0  0  0  0  0  0  0  0  0  0
    4.6721    1.6107    2.2975 H   0  0  0  0  0  0  0  0  0  0  0  0
    3.6868    1.2902    0.8745 H   0  0  0  0  0  0  0  0  0  0  0  0
    5.7976    0.8024    0.0967 H   0  0  0  0  0  0  0  0  0  0  0  0
    6.3947    0.2125    1.6402 H   0  0  0  0  0  0  0  0  0  0  0  0
    5.8634   -2.8432   -0.5452 H   0  0  0  0  0  0  0  0  0  0  0  0
    5.0153   -0.5593   -1.8581 H   0  0  0  0  0  0  0  0  0  0  0  0
    5.7270   -1.9922   -2.5520 H   0  0  0  0  0  0  0  0  0  0  0  0
    7.2422    0.5126   -1.6964 H   0  0  0  0  0  0  0  0  0  0  0  0
    6.8647    0.0295   -3.3479 H   0  0  0  0  0  0  0  0  0  0  0  0
    9.7028    0.3500   -1.5595 H   0  0  0  0  0  0  0  0  0  0  0  0
    9.5392    0.4221   -3.3291 H   0  0  0  0  0  0  0  0  0  0  0  0
   10.5416   -0.8203   -2.6009 H   0  0  0  0  0  0  0  0  0  0  0  0
    9.2144   -2.4407   -3.6836 H   0  0  0  0  0  0  0  0  0  0  0  0
    9.5642   -2.2758   -0.9134 H   0  0  0  0  0  0  0  0  0  0  0  0
    8.2262   -3.1923   -1.5649 H   0  0  0  0  0  0  0  0  0  0  0  0
    7.8299   -2.4833    0.7770 H   0  0  0  0  0  0  0  0  0  0  0  0
    7.9760   -0.7961    0.3048 H   0  0  0  0  0  0  0  0  0  0  0  0
    4.3876   -2.8965    1.4151 H   0  0  0  0  0  0  0  0  0  0  0  0
    5.9765   -2.5297    2.0771 H   0  0  0  0  0  0  0  0  0  0  0  0
    5.1801   -0.9520    3.5761 H   0  0  0  0  0  0  0  0  0  0  0  0
    3.8355   -2.0865    3.5226 H   0  0  0  0  0  0  0  0  0  0  0  0
    1.9056   -1.7304    1.9530 H   0  0  0  0  0  0  0  0  0  0  0  0
    2.1494   -0.5519    0.6541 H   0  0  0  0  0  0  0  0  0  0  0  0
   -0.4137   -0.4701    0.9412 H   0  0  0  0  0  0  0  0  0  0  0  0
   -1.7304    0.3255    1.8148 H   0  0  0  0  0  0  0  0  0  0  0  0
   -1.1362    0.5728   -1.1809 H   0  0  0  0  0  0  0  0  0  0  0  0
   -2.3940   -0.4518   -0.4970 H   0  0  0  0  0  0  0  0  0  0  0  0
   -2.6258    1.8381   -2.6035 H   0  0  0  0  0  0  0  0  0  0  0  0
   -3.5501    3.1605   -1.8701 H   0  0  0  0  0  0  0  0  0  0  0  0
   -5.7860   -1.4584   -1.0331 H   0  0  0  0  0  0  0  0  0  0  0  0
   -7.3374   -1.6920   -1.8463 H   0  0  0  0  0  0  0  0  0  0  0  0
   -6.8447   -3.2781    0.0679 H   0  0  0  0  0  0  0  0  0  0  0  0
   -8.4139   -2.4726    0.1498 H   0  0  0  0  0  0  0  0  0  0  0  0
  1  2  1  0
  2  3  1  0
  3  4  1  0
  4  5  2  0
  5  6  1  0
  6  7  2  0
  7  8  1  0
  8  9  2  0
  9 10  1  0
 10 11  2  0
 11 12  1  0
 12 13  1  0
 13 14  1  0
 14 15  1  0
 15 16  1  0
 16 17  1  0
 17 18  1  0
 18 19  2  0
 18 20  1  0
 20 21  1  0
 21 22  1  0
 22 23  1  0
 23 24  1  0
 24 25  1  0
 25 26  1  0
 26 27  1  0
 27 28  1  0
 28 29  1  0
 29 30  1  0
 29 31  1  6
 29 32  1  0
 32 33  1  0
 25 34  1  0
 34 35  1  0
 22 36  1  0
 17 37  1  0
 37 38  1  0
 14 39  1  0
  5 40  1  0
 40 41  1  0
 41  2  1  0
 11  6  1  0
 39 12  1  0
 38 14  1  0
 36 20  1  0
 35 22  1  0
 33 26  1  0
  1 42  1  0
  1 43  1  0
  1 44  1  0
  3 45  1  0
  3 46  1  0
  4 47  1  0
  7 48  1  0
  8 49  1  0
  9 50  1  0
 10 51  1  0
 12 52  1  0
 13 53  1  0
 13 54  1  0
 15 55  1  0
 15 56  1  0
 16 57  1  0
 16 58  1  0
 20 59  1  0
 21 60  1  0
 21 61  1  0
 23 62  1  0
 23 63  1  0
 24 64  1  0
 24 65  1  0
 26 66  1  6
 27 67  1  0
 27 68  1  0
 28 69  1  0
 28 70  1  0
 30 71  1  0
 30 72  1  0
 30 73  1  0
 31 74  1  0
 32 75  1  0
 32 76  1  0
 33 77  1  0
 33 78  1  0
 34 79  1  0
 34 80  1  0
 35 81  1  0
 35 82  1  0
 36 83  1  0
 36 84  1  0
 37 85  1  0
 37 86  1  0
 38 87  1  0
 38 88  1  0
 39 89  1  0
 39 90  1  0
 40 91  1  0
 40 92  1  0
 41 93  1  0
 41 94  1  0
M  END
$$$$
