
     RDKit          3D

 89 94  0  0  0  0  0  0  0  0999 V2000
   -6.1916    2.5087   -2.5811 C   0  0  0  0  0  0  0  0  0  0  0  0
   -7.0299    2.8045   -1.4208 N   0  0  0  0  0  0  0  0  0  0  0  0
   -6.2173    3.1111   -0.2312 C   0  0  0  0  0  0  0  0  0  0  0  0
   -5.7131    1.9122    0.5207 C   0  0  0  0  0  0  0  0  0  0  0  0
   -6.1808    0.6672    0.3212 C   0  0  0  0  0  0  0  0  0  0  0  0
   -5.6502   -0.4655    1.0995 C   0  0  0  0  0  0  0  0  0  0  0  0
   -6.4618   -0.9630    2.1353 C   0  0  0  0  0  0  0  0  0  0  0  0
   -6.0400   -2.0257    2.9321 C   0  0  0  0  0  0  0  0  0  0  0  0
   -4.7990   -2.6056    2.7049 C   0  0  0  0  0  0  0  0  0  0  0  0
   -3.9802   -2.1206    1.6840 C   0  0  0  0  0  0  0  0  0  0  0  0
   -4.3794   -1.0425    0.8674 C   0  0  0  0  0  0  0  0  0  0  0  0
   -3.4669   -0.5631   -0.2689 C   0  0  2  0  0  0  0  0  0  0  0  0
   -3.7802   -1.3231   -1.5954 C   0  0  0  0  0  0  0  0  0  0  0  0
   -3.2513   -2.6977   -1.6442 N   0  0  0  0  0  0  0  0  0  0  0  0
   -3.4847   -3.3210   -2.9403 C   0  0  0  0  0  0  0  0  0  0  0  0
   -1.8445   -2.7732   -1.2268 C   0  0  0  0  0  0  0  0  0  0  0  0
   -1.1920   -1.4456   -0.7881 C   0  0  0  0  0  0  0  0  0  0  0  0
   -2.0247   -0.6209    0.0870 N   0  0  0  0  0  0  0  0  0  0  0  0
   -1.5365    0.3871    0.9351 C   0  0  0  0  0  0  0  0  0  0  0  0
   -2.3068    1.2756    1.3408 O   0  0  0  0  0  0  0  0  0  0  0  0
   -0.0755    0.4184    1.4106 C   0  0  0  0  0  0  0  0  0  0  0  0
    1.1143    0.5263    0.4385 C   0  0  0  0  0  0  0  0  0  0  0  0
    1.9408   -0.4005    1.3926 C   0  0  0  0  0  0  0  0  0  0  0  0
    2.6655   -1.5705    0.7092 C   0  0  0  0  0  0  0  0  0  0  0  0
    4.1700   -1.3043    0.5568 C   0  0  0  0  0  0  0  0  0  0  0  0
    4.4371    0.1178    0.3556 N   0  0  0  0  0  0  0  0  0  0  0  0
    5.7783    0.3886   -0.2000 C   0  0  1  0  0  0  0  0  0  0  0  0
    5.9861    1.8711   -0.5450 C   0  0  0  0  0  0  0  0  0  0  0  0
    7.2823    2.1140   -1.3331 C   0  0  0  0  0  0  0  0  0  0  0  0
    8.4120    1.1219   -0.9992 C   0  0  2  0  0  0  0  0  0  0  0  0
    9.7787    1.7737   -1.2177 C   0  0  0  0  0  0  0  0  0  0  0  0
    8.3123    0.0176   -1.9051 O   0  0  0  0  0  0  0  0  0  0  0  0
    8.2732    0.5890    0.4296 C   0  0  0  0  0  0  0  0  0  0  0  0
    6.9456   -0.1458    0.6619 C   0  0  0  0  0  0  0  0  0  0  0  0
    4.0715    0.9278    1.5259 C   0  0  0  0  0  0  0  0  0  0  0  0
    2.8912    0.3546    2.3272 C   0  0  0  0  0  0  0  0  0  0  0  0
    0.5906   -0.8133    2.0546 C   0  0  0  0  0  0  0  0  0  0  0  0
   -7.3082    0.4066   -0.6442 C   0  0  0  0  0  0  0  0  0  0  0  0
   -7.9715    1.7116   -1.1257 C   0  0  0  0  0  0  0  0  0  0  0  0
   -5.5175    1.6595   -2.4268 H   0  0  0  0  0  0  0  0  0  0  0  0
   -6.8134    2.2963   -3.4580 H   0  0  0  0  0  0  0  0  0  0  0  0
   -5.5810    3.3812   -2.8396 H   0  0  0  0  0  0  0  0  0  0  0  0
   -6.8255    3.7092    0.4590 H   0  0  0  0  0  0  0  0  0  0  0  0
   -5.3695    3.7500   -0.5080 H   0  0  0  0  0  0  0  0  0  0  0  0
   -4.9307    2.0963    1.2554 H   0  0  0  0  0  0  0  0  0  0  0  0
   -7.4314   -0.5112    2.3337 H   0  0  0  0  0  0  0  0  0  0  0  0
   -6.6784   -2.3951    3.7294 H   0  0  0  0  0  0  0  0  0  0  0  0
   -4.4635   -3.4356    3.3205 H   0  0  0  0  0  0  0  0  0  0  0  0
   -3.0170   -2.5976    1.5266 H   0  0  0  0  0  0  0  0  0  0  0  0
   -3.6702    0.4933   -0.4724 H   0  0  0  0  0  0  0  0  0  0  0  0
   -4.8635   -1.3479   -1.7604 H   0  0  0  0  0  0  0  0  0  0  0  0
   -3.3493   -0.7444   -2.4248 H   0  0  0  0  0  0  0  0  0  0  0  0
   -3.1671   -4.3695   -2.9256 H   0  0  0  0  0  0  0  0  0  0  0  0
   -2.9474   -2.8076   -3.7457 H   0  0  0  0  0  0  0  0  0  0  0  0
   -4.5530   -3.3200   -3.1833 H   0  0  0  0  0  0  0  0  0  0  0  0
   -1.8016   -3.4715   -0.3822 H   0  0  0  0  0  0  0  0  0  0  0  0
   -1.2126   -3.2128   -2.0095 H   0  0  0  0  0  0  0  0  0  0  0  0
   -0.2422   -1.6808   -0.3159 H   0  0  0  0  0  0  0  0  0  0  0  0
   -0.9705   -0.8360   -1.6730 H   0  0  0  0  0  0  0  0  0  0  0  0
    0.0030    1.2551    2.1301 H   0  0  0  0  0  0  0  0  0  0  0  0
    1.4949    1.5463    0.3155 H   0  0  0  0  0  0  0  0  0  0  0  0
    0.9494    0.1310   -0.5668 H   0  0  0  0  0  0  0  0  0  0  0  0
    2.5429   -2.4878    1.2986 H   0  0  0  0  0  0  0  0  0  0  0  0
    2.2251   -1.7702   -0.2748 H   0  0  0  0  0  0  0  0  0  0  0  0
    4.7001   -1.6725    1.4450 H   0  0  0  0  0  0  0  0  0  0  0  0
    4.5303   -1.9011   -0.2904 H   0  0  0  0  0  0  0  0  0  0  0  0
    5.8127   -0.1452   -1.1604 H   0  0  0  0  0  0  0  0  0  0  0  0
    6.0274    2.4668    0.3762 H   0  0  0  0  0  0  0  0  0  0  0  0
    5.1405    2.2571   -1.1281 H   0  0  0  0  0  0  0  0  0  0  0  0
    7.5987    3.1455   -1.1330 H   0  0  0  0  0  0  0  0  0  0  0  0
    7.0542    2.0592   -2.4055 H   0  0  0  0  0  0  0  0  0  0  0  0
    9.8850    2.1142   -2.2541 H   0  0  0  0  0  0  0  0  0  0  0  0
    9.9284    2.6303   -0.5525 H   0  0  0  0  0  0  0  0  0  0  0  0
   10.5881    1.0559   -1.0421 H   0  0  0  0  0  0  0  0  0  0  0  0
    9.0504   -0.5895   -1.7228 H   0  0  0  0  0  0  0  0  0  0  0  0
    9.0914   -0.1030    0.6658 H   0  0  0  0  0  0  0  0  0  0  0  0
    8.3513    1.4225    1.1398 H   0  0  0  0  0  0  0  0  0  0  0  0
    7.0819   -1.2127    0.4411 H   0  0  0  0  0  0  0  0  0  0  0  0
    6.7201   -0.0929    1.7330 H   0  0  0  0  0  0  0  0  0  0  0  0
    3.7911    1.9276    1.1733 H   0  0  0  0  0  0  0  0  0  0  0  0
    4.9096    1.0631    2.2186 H   0  0  0  0  0  0  0  0  0  0  0  0
    2.3805    1.1677    2.8564 H   0  0  0  0  0  0  0  0  0  0  0  0
    3.2683   -0.3326    3.0958 H   0  0  0  0  0  0  0  0  0  0  0  0
    0.1919   -1.7823    1.7391 H   0  0  0  0  0  0  0  0  0  0  0  0
    0.5866   -0.8090    3.1504 H   0  0  0  0  0  0  0  0  0  0  0  0
   -6.9180   -0.1445   -1.5079 H   0  0  0  0  0  0  0  0  0  0  0  0
   -8.0791   -0.2221   -0.1834 H   0  0  0  0  0  0  0  0  0  0  0  0
   -8.5946    1.5030   -2.0044 H   0  0  0  0  0  0  0  0  0  0  0  0
   -8.6702    2.0608   -0.3530 H   0  0  0  0  0  0  0  0  0  0  0  0
  1  2  1  0
  2  3  1  0
  3  4  1  0
  4  5  2  0
  5  6  1  0
  6  7  2  0
  7  8  1  0
  8  9  2  0
  9 10  1  0
 10 11  2  0
 11 12  1  0
 12 13  1  0
 13 14  1  0
 14 15  1  0
 14 16  1  0
 16 17  1  0
 17 18  1  0
 18 19  1  0
 19 20  2  0
 19 21  1  0
 21 22  1  0
 22 23  1  0
 23 24  1  0
 24 25  1  0
 25 26  1  0
 26 27  1  0
 27 28  1  0
 28 29  1  0
 29 30  1  0
 30 31  1  0
 30 32  1  6
 30 33  1  0
 33 34  1  0
 26 35  1  0
 35 36  1  0
 23 37  1  0
  5 38  1  0
 38 39  1  0
 39  2  1  0
 11  6  1  0
 18 12  1  0
 37 21  1  0
 36 23  1  0
 34 27  1  0
  1 40  1  0
  1 41  1  0
  1 42  1  0
  3 43  1  0
  3 44  1  0
  4 45  1  0
  7 46  1  0
  8 47  1  0
  9 48  1  0
 10 49  1  0
 12 50  1  6
 13 51  1  0
 13 52  1  0
 15 53  1  0
 15 54  1  0
 15 55  1  0
 16 56  1  0
 16 57  1  0
 17 58  1  0
 17 59  1  0
 21 60  1  0
 22 61  1  0
 22 62  1  0
 24 63  1  0
 24 64  1  0
 25 65  1  0
 25 66  1  0
 27 67  1  6
 28 68  1  0
 28 69  1  0
 29 70  1  0
 29 71  1  0
 31 72  1  0
 31 73  1  0
 31 74  1  0
 32 75  1  0
 33 76  1  0
 33 77  1  0
 34 78  1  0
 34 79  1  0
 35 80  1  0
 35 81  1  0
 36 82  1  0
 36 83  1  0
 37 84  1  0
 37 85  1  0
 38 86  1  0
 38 87  1  0
 39 88  1  0
 39 89  1  0
M  END
$$$$

     RDKit          3D

 89 94  0  0  0  0  0  0  0  0999 V2000
   -4.8645   -2.4486   -3.3832 C   0  0  0  0  0  0  0  0  0  0  0  0
   -4.7367   -1.5146   -2.2670 N   0  0  0  0  0  0  0  0  0  0  0  0
   -5.7588   -0.4591   -2.3602 C   0  0  0  0  0  0  0  0  0  0  0  0
   -5.8320    0.4057   -1.1335 C   0  0  0  0  0  0  0  0  0  0  0  0
   -5.2505    0.0692    0.0314 C   0  0  0  0  0  0  0  0  0  0  0  0
   -5.3778    0.9257    1.2201 C   0  0  0  0  0  0  0  0  0  0  0  0
   -6.4817    0.6463    2.0522 C   0  0  0  0  0  0  0  0  0  0  0  0
   -6.7207    1.3783    3.2134 C   0  0  0  0  0  0  0  0  0  0  0  0
   -5.8578    2.4051    3.5643 C   0  0  0  0  0  0  0  0  0  0  0  0
   -4.7643    2.6995    2.7494 C   0  0  0  0  0  0  0  0  0  0  0  0
   -4.4984    1.9759    1.5626 C   0  0  0  0  0  0  0  0  0  0  0  0
   -3.2824    2.4308    0.7503 C   0  0  2  0  0  0  0  0  0  0  0  0
   -3.7098    3.2706   -0.4927 C   0  0  0  0  0  0  0  0  0  0  0  0
   -2.5460    3.6992   -1.2962 N   0  0  0  0  0  0  0  0  0  0  0  0
   -2.9519    4.4920   -2.4501 C   0  0  0  0  0  0  0  0  0  0  0  0
   -1.6899    2.5585   -1.6806 C   0  0  0  0  0  0  0  0  0  0  0  0
   -2.0349    1.2089   -1.0108 C   0  0  0  0  0  0  0  0  0  0  0  0
   -2.3264    1.3605    0.4163 N   0  0  0  0  0  0  0  0  0  0  0  0
   -1.5449    0.8196    1.4406 C   0  0  0  0  0  0  0  0  0  0  0  0
   -1.6657    1.2113    2.6088 O   0  0  0  0  0  0  0  0  0  0  0  0
   -0.5338   -0.2958    1.0563 C   0  0  0  0  0  0  0  0  0  0  0  0
    0.8987    0.1533    0.6615 C   0  0  0  0  0  0  0  0  0  0  0  0
    1.4614   -1.0872    1.4176 C   0  0  0  0  0  0  0  0  0  0  0  0
    2.6868   -0.8174    2.2917 C   0  0  0  0  0  0  0  0  0  0  0  0
    3.9380   -0.7065    1.4162 C   0  0  0  0  0  0  0  0  0  0  0  0
    4.1394   -1.9347    0.6314 N   0  0  0  0  0  0  0  0  0  0  0  0
    5.4173   -1.9926   -0.1090 C   0  0  1  0  0  0  0  0  0  0  0  0
    5.7422   -0.7861   -1.0223 C   0  0  0  0  0  0  0  0  0  0  0  0
    6.7976    0.1427   -0.4230 C   0  0  0  0  0  0  0  0  0  0  0  0
    8.1267   -0.5929   -0.1563 C   0  0  2  0  0  0  0  0  0  0  0  0
    8.9043    0.1293    0.9474 C   0  0  0  0  0  0  0  0  0  0  0  0
    8.9406   -0.5176   -1.3322 O   0  0  0  0  0  0  0  0  0  0  0  0
    7.9263   -2.0820    0.1878 C   0  0  0  0  0  0  0  0  0  0  0  0
    6.5776   -2.3277    0.8569 C   0  0  0  0  0  0  0  0  0  0  0  0
    2.9860   -2.1926   -0.2470 C   0  0  0  0  0  0  0  0  0  0  0  0
    1.6917   -2.3366    0.5594 C   0  0  0  0  0  0  0  0  0  0  0  0
    0.1239   -1.1027    2.2109 C   0  0  0  0  0  0  0  0  0  0  0  0
   -4.5663   -1.2650    0.1980 C   0  0  0  0  0  0  0  0  0  0  0  0
   -4.8473   -2.2175   -0.9786 C   0  0  0  0  0  0  0  0  0  0  0  0
   -4.7575   -1.9227   -4.3384 H   0  0  0  0  0  0  0  0  0  0  0  0
   -5.8289   -2.9694   -3.3817 H   0  0  0  0  0  0  0  0  0  0  0  0
   -4.0680   -3.2000   -3.3474 H   0  0  0  0  0  0  0  0  0  0  0  0
   -6.7558   -0.8837   -2.5353 H   0  0  0  0  0  0  0  0  0  0  0  0
   -5.5189    0.1844   -3.2152 H   0  0  0  0  0  0  0  0  0  0  0  0
   -6.3959    1.3301   -1.2235 H   0  0  0  0  0  0  0  0  0  0  0  0
   -7.1670   -0.1591    1.7941 H   0  0  0  0  0  0  0  0  0  0  0  0
   -7.5733    1.1403    3.8430 H   0  0  0  0  0  0  0  0  0  0  0  0
   -6.0259    2.9755    4.4738 H   0  0  0  0  0  0  0  0  0  0  0  0
   -4.0966    3.5032    3.0580 H   0  0  0  0  0  0  0  0  0  0  0  0
   -2.7020    3.1211    1.3810 H   0  0  0  0  0  0  0  0  0  0  0  0
   -4.2566    4.1563   -0.1434 H   0  0  0  0  0  0  0  0  0  0  0  0
   -4.4008    2.7084   -1.1281 H   0  0  0  0  0  0  0  0  0  0  0  0
   -2.0733    4.8572   -2.9935 H   0  0  0  0  0  0  0  0  0  0  0  0
   -3.5754    3.9181   -3.1451 H   0  0  0  0  0  0  0  0  0  0  0  0
   -3.5153    5.3760   -2.1320 H   0  0  0  0  0  0  0  0  0  0  0  0
   -0.6624    2.8277   -1.4071 H   0  0  0  0  0  0  0  0  0  0  0  0
   -1.6911    2.3993   -2.7667 H   0  0  0  0  0  0  0  0  0  0  0  0
   -1.2197    0.5073   -1.1915 H   0  0  0  0  0  0  0  0  0  0  0  0
   -2.9244    0.7881   -1.4870 H   0  0  0  0  0  0  0  0  0  0  0  0
   -0.9684   -0.9975    0.3297 H   0  0  0  0  0  0  0  0  0  0  0  0
    1.0944    0.1913   -0.4140 H   0  0  0  0  0  0  0  0  0  0  0  0
    1.1896    1.1189    1.0936 H   0  0  0  0  0  0  0  0  0  0  0  0
    2.5629    0.1078    2.8674 H   0  0  0  0  0  0  0  0  0  0  0  0
    2.8155   -1.6284    3.0203 H   0  0  0  0  0  0  0  0  0  0  0  0
    3.8459    0.1693    0.7628 H   0  0  0  0  0  0  0  0  0  0  0  0
    4.7864   -0.5257    2.0834 H   0  0  0  0  0  0  0  0  0  0  0  0
    5.3534   -2.8634   -0.7783 H   0  0  0  0  0  0  0  0  0  0  0  0
    6.1125   -1.1670   -1.9836 H   0  0  0  0  0  0  0  0  0  0  0  0
    4.8433   -0.2126   -1.2730 H   0  0  0  0  0  0  0  0  0  0  0  0
    6.9631    0.9818   -1.1101 H   0  0  0  0  0  0  0  0  0  0  0  0
    6.4014    0.5664    0.5074 H   0  0  0  0  0  0  0  0  0  0  0  0
    8.3735    0.0984    1.9044 H   0  0  0  0  0  0  0  0  0  0  0  0
    9.8951   -0.3186    1.0857 H   0  0  0  0  0  0  0  0  0  0  0  0
    9.0756    1.1783    0.6793 H   0  0  0  0  0  0  0  0  0  0  0  0
    8.4544   -0.9283   -2.0668 H   0  0  0  0  0  0  0  0  0  0  0  0
    8.7334   -2.4367    0.8406 H   0  0  0  0  0  0  0  0  0  0  0  0
    7.9941   -2.6978   -0.7189 H   0  0  0  0  0  0  0  0  0  0  0  0
    6.5318   -1.7365    1.7779 H   0  0  0  0  0  0  0  0  0  0  0  0
    6.5031   -3.3788    1.1629 H   0  0  0  0  0  0  0  0  0  0  0  0
    2.8744   -1.3947   -0.9908 H   0  0  0  0  0  0  0  0  0  0  0  0
    3.1360   -3.1295   -0.7972 H   0  0  0  0  0  0  0  0  0  0  0  0
    0.8552   -2.5100   -0.1276 H   0  0  0  0  0  0  0  0  0  0  0  0
    1.7595   -3.2229    1.2039 H   0  0  0  0  0  0  0  0  0  0  0  0
    0.1648   -0.5687    3.1681 H   0  0  0  0  0  0  0  0  0  0  0  0
   -0.3133   -2.0894    2.3935 H   0  0  0  0  0  0  0  0  0  0  0  0
   -4.8933   -1.7539    1.1237 H   0  0  0  0  0  0  0  0  0  0  0  0
   -3.4861   -1.1131    0.2808 H   0  0  0  0  0  0  0  0  0  0  0  0
   -4.1207   -3.0380   -0.9305 H   0  0  0  0  0  0  0  0  0  0  0  0
   -5.8447   -2.6643   -0.8650 H   0  0  0  0  0  0  0  0  0  0  0  0
  1  2  1  0
  2  3  1  0
  3  4  1  0
  4  5  2  0
  5  6  1  0
  6  7  2  0
  7  8  1  0
  8  9  2  0
  9 10  1  0
 10 11  2  0
 11 12  1  0
 12 13  1  0
 13 14  1  0
 14 15  1  0
 14 16  1  0
 16 17  1  0
 17 18  1  0
 18 19  1  0
 19 20  2  0
 19 21  1  0
 21 22  1  0
 22 23  1  0
 23 24  1  0
 24 25  1  0
 25 26  1  0
 26 27  1  0
 27 28  1  0
 28 29  1  0
 29 30  1  0
 30 31  1  0
 30 32  1  6
 30 33  1  0
 33 34  1  0
 26 35  1  0
 35 36  1  0
 23 37  1  0
  5 38  1  0
 38 39  1  0
 39  2  1  0
 11  6  1  0
 18 12  1  0
 37 21  1  0
 36 23  1  0
 34 27  1  0
  1 40  1  0
  1 41  1  0
  1 42  1  0
  3 43  1  0
  3 44  1  0
  4 45  1  0
  7 46  1  0
  8 47  1  0
  9 48  1  0
 10 49  1  0
 12 50  1  1
 13 51  1  0
 13 52  1  0
 15 53  1  0
 15 54  1  0
 15 55  1  0
 16 56  1  0
 16 57  1  0
 17 58  1  0
 17 59  1  0
 21 60  1  0
 22 61  1  0
 22 62  1  0
 24 63  1  0
 24 64  1  0
 25 65  1  0
 25 66  1  0
 27 67  1  6
 28 68  1  0
 28 69  1  0
 29 70  1  0
 29 71  1  0
 31 72  1  0
 31 73  1  0
 31 74  1  0
 32 75  1  0
 33 76  1  0
 33 77  1  0
 34 78  1  0
 34 79  1  0
 35 80  1  0
 35 81  1  0
 36 82  1  0
 36 83  1  0
 37 84  1  0
 37 85  1  0
 38 86  1  0
 38 87  1  0
 39 88  1  0
 39 89  1  0
M  END
$$$$

     RDKit          3D

 89 94  0  0  0  0  0  0  0  0999 V2000
   -4.0365   -2.7667    2.6867 C   0  0  0  0  0  0  0  0  0  0  0  0
   -3.8497   -3.4157    1.3905 N   0  0  0  0  0  0  0  0  0  0  0  0
   -2.5706   -3.0417    0.7712 C   0  0  0  0  0  0  0  0  0  0  0  0
   -2.5795   -1.7328    0.0301 C   0  0  0  0  0  0  0  0  0  0  0  0
   -3.7074   -1.0762   -0.2947 C   0  0  0  0  0  0  0  0  0  0  0  0
   -3.6679    0.1894   -1.0526 C   0  0  0  0  0  0  0  0  0  0  0  0
   -4.0095    0.1167   -2.4158 C   0  0  0  0  0  0  0  0  0  0  0  0
   -4.0257    1.2565   -3.2172 C   0  0  0  0  0  0  0  0  0  0  0  0
   -3.7047    2.4891   -2.6660 C   0  0  0  0  0  0  0  0  0  0  0  0
   -3.3557    2.5791   -1.3181 C   0  0  0  0  0  0  0  0  0  0  0  0
   -3.3111    1.4389   -0.4881 C   0  0  0  0  0  0  0  0  0  0  0  0
   -2.9218    1.5850    0.9868 C   0  0  2  0  0  0  0  0  0  0  0  0
   -4.1841    1.6627    1.9048 C   0  0  0  0  0  0  0  0  0  0  0  0
   -4.8879    2.9572    1.8616 N   0  0  0  0  0  0  0  0  0  0  0  0
   -5.9732    3.0114    2.8334 C   0  0  0  0  0  0  0  0  0  0  0  0
   -3.9677    4.1003    1.9874 C   0  0  0  0  0  0  0  0  0  0  0  0
   -2.4797    3.7480    2.1730 C   0  0  0  0  0  0  0  0  0  0  0  0
   -1.9975    2.7193    1.2474 N   0  0  0  0  0  0  0  0  0  0  0  0
   -0.6405    2.7418    0.9012 C   0  0  0  0  0  0  0  0  0  0  0  0
    0.0874    3.6542    1.3210 O   0  0  0  0  0  0  0  0  0  0  0  0
   -0.0753    1.6200   -0.0181 C   0  0  0  0  0  0  0  0  0  0  0  0
    0.2803    2.0269   -1.4724 C   0  0  0  0  0  0  0  0  0  0  0  0
    1.5388    1.1170   -1.3942 C   0  0  0  0  0  0  0  0  0  0  0  0
    2.7935    1.7562   -2.0045 C   0  0  0  0  0  0  0  0  0  0  0  0
    3.8599    0.7030   -2.3414 C   0  0  0  0  0  0  0  0  0  0  0  0
    3.8066   -0.4273   -1.4004 N   0  0  0  0  0  0  0  0  0  0  0  0
    5.0221   -1.2761   -1.4583 C   0  0  1  0  0  0  0  0  0  0  0  0
    6.2669   -0.5404   -0.8851 C   0  0  0  0  0  0  0  0  0  0  0  0
    6.5927   -0.9472    0.5526 C   0  0  0  0  0  0  0  0  0  0  0  0
    6.9347   -2.4457    0.6515 C   0  0  2  0  0  0  0  0  0  0  0  0
    6.6603   -2.9497    2.0705 C   0  0  0  0  0  0  0  0  0  0  0  0
    8.3377   -2.6245    0.4277 O   0  0  0  0  0  0  0  0  0  0  0  0
    6.1791   -3.2824   -0.3969 C   0  0  0  0  0  0  0  0  0  0  0  0
    4.8388   -2.6450   -0.7483 C   0  0  0  0  0  0  0  0  0  0  0  0
    2.5499   -1.1763   -1.6110 C   0  0  0  0  0  0  0  0  0  0  0  0
    1.3364   -0.2937   -1.9512 C   0  0  0  0  0  0  0  0  0  0  0  0
    1.4199    1.2391    0.1588 C   0  0  0  0  0  0  0  0  0  0  0  0
   -5.0617   -1.6746    0.0082 C   0  0  0  0  0  0  0  0  0  0  0  0
   -4.9629   -3.1419    0.4677 C   0  0  0  0  0  0  0  0  0  0  0  0
   -3.2516   -3.0804    3.3840 H   0  0  0  0  0  0  0  0  0  0  0  0
   -4.0208   -1.6731    2.6317 H   0  0  0  0  0  0  0  0  0  0  0  0
   -4.9884   -3.0730    3.1347 H   0  0  0  0  0  0  0  0  0  0  0  0
   -1.7749   -3.0253    1.5263 H   0  0  0  0  0  0  0  0  0  0  0  0
   -2.2864   -3.8273    0.0597 H   0  0  0  0  0  0  0  0  0  0  0  0
   -1.6084   -1.3471   -0.2620 H   0  0  0  0  0  0  0  0  0  0  0  0
   -4.2678   -0.8405   -2.8649 H   0  0  0  0  0  0  0  0  0  0  0  0
   -4.2954    1.1812   -4.2670 H   0  0  0  0  0  0  0  0  0  0  0  0
   -3.7254    3.3850   -3.2810 H   0  0  0  0  0  0  0  0  0  0  0  0
   -3.1151    3.5613   -0.9171 H   0  0  0  0  0  0  0  0  0  0  0  0
   -2.3641    0.6951    1.2955 H   0  0  0  0  0  0  0  0  0  0  0  0
   -3.8612    1.4628    2.9366 H   0  0  0  0  0  0  0  0  0  0  0  0
   -4.8890    0.8690    1.6415 H   0  0  0  0  0  0  0  0  0  0  0  0
   -5.6056    2.9497    3.8639 H   0  0  0  0  0  0  0  0  0  0  0  0
   -6.5419    3.9415    2.7233 H   0  0  0  0  0  0  0  0  0  0  0  0
   -6.6800    2.1904    2.6697 H   0  0  0  0  0  0  0  0  0  0  0  0
   -4.0688    4.6884    1.0671 H   0  0  0  0  0  0  0  0  0  0  0  0
   -4.2626    4.7712    2.8045 H   0  0  0  0  0  0  0  0  0  0  0  0
   -1.8867    4.6633    2.0694 H   0  0  0  0  0  0  0  0  0  0  0  0
   -2.3082    3.3672    3.1876 H   0  0  0  0  0  0  0  0  0  0  0  0
   -0.6726    0.7059    0.0031 H   0  0  0  0  0  0  0  0  0  0  0  0
    0.4998    3.0956   -1.5882 H   0  0  0  0  0  0  0  0  0  0  0  0
   -0.4573    1.7475   -2.2305 H   0  0  0  0  0  0  0  0  0  0  0  0
    3.2126    2.5044   -1.3208 H   0  0  0  0  0  0  0  0  0  0  0  0
    2.5355    2.2862   -2.9300 H   0  0  0  0  0  0  0  0  0  0  0  0
    3.7127    0.3400   -3.3682 H   0  0  0  0  0  0  0  0  0  0  0  0
    4.8286    1.2118   -2.3473 H   0  0  0  0  0  0  0  0  0  0  0  0
    5.2302   -1.4912   -2.5164 H   0  0  0  0  0  0  0  0  0  0  0  0
    6.1564    0.5479   -0.9116 H   0  0  0  0  0  0  0  0  0  0  0  0
    7.1296   -0.7606   -1.5276 H   0  0  0  0  0  0  0  0  0  0  0  0
    7.4356   -0.3443    0.9122 H   0  0  0  0  0  0  0  0  0  0  0  0
    5.7284   -0.7026    1.1832 H   0  0  0  0  0  0  0  0  0  0  0  0
    5.5981   -2.8849    2.3269 H   0  0  0  0  0  0  0  0  0  0  0  0
    6.9815   -3.9915    2.1848 H   0  0  0  0  0  0  0  0  0  0  0  0
    7.2304   -2.3694    2.8054 H   0  0  0  0  0  0  0  0  0  0  0  0
    8.5647   -2.2153   -0.4241 H   0  0  0  0  0  0  0  0  0  0  0  0
    6.7784   -3.3912   -1.3105 H   0  0  0  0  0  0  0  0  0  0  0  0
    6.0196   -4.3033   -0.0285 H   0  0  0  0  0  0  0  0  0  0  0  0
    4.2776   -3.3275   -1.3978 H   0  0  0  0  0  0  0  0  0  0  0  0
    4.2551   -2.5313    0.1742 H   0  0  0  0  0  0  0  0  0  0  0  0
    2.3123   -1.7232   -0.6912 H   0  0  0  0  0  0  0  0  0  0  0  0
    2.6568   -1.9176   -2.4133 H   0  0  0  0  0  0  0  0  0  0  0  0
    0.4246   -0.7615   -1.5640 H   0  0  0  0  0  0  0  0  0  0  0  0
    1.2194   -0.2390   -3.0415 H   0  0  0  0  0  0  0  0  0  0  0  0
    1.5927    0.3229    0.7320 H   0  0  0  0  0  0  0  0  0  0  0  0
    2.0359    2.0315    0.6005 H   0  0  0  0  0  0  0  0  0  0  0  0
   -5.7110   -1.6358   -0.8745 H   0  0  0  0  0  0  0  0  0  0  0  0
   -5.5517   -1.0838    0.7897 H   0  0  0  0  0  0  0  0  0  0  0  0
   -5.9139   -3.4498    0.9200 H   0  0  0  0  0  0  0  0  0  0  0  0
   -4.8423   -3.7837   -0.4159 H   0  0  0  0  0  0  0  0  0  0  0  0
  1  2  1  0
  2  3  1  0
  3  4  1  0
  4  5  2  0
  5  6  1  0
  6  7  2  0
  7  8  1  0
  8  9  2  0
  9 10  1  0
 10 11  2  0
 11 12  1  0
 12 13  1  0
 13 14  1  0
 14 15  1  0
 14 16  1  0
 16 17  1  0
 17 18  1  0
 18 19  1  0
 19 20  2  0
 19 21  1  0
 21 22  1  0
 22 23  1  0
 23 24  1  0
 24 25  1  0
 25 26  1  0
 26 27  1  0
 27 28  1  0
 28 29  1  0
 29 30  1  0
 30 31  1  0
 30 32  1  6
 30 33  1  0
 33 34  1  0
 26 35  1  0
 35 36  1  0
 23 37  1  0
  5 38  1  0
 38 39  1  0
 39  2  1  0
 11  6  1  0
 18 12  1  0
 37 21  1  0
 36 23  1  0
 34 27  1  0
  1 40  1  0
  1 41  1  0
  1 42  1  0
  3 43  1  0
  3 44  1  0
  4 45  1  0
  7 46  1  0
  8 47  1  0
  9 48  1  0
 10 49  1  0
 12 50  1  1
 13 51  1  0
 13 52  1  0
 15 53  1  0
 15 54  1  0
 15 55  1  0
 16 56  1  0
 16 57  1  0
 17 58  1  0
 17 59  1  0
 21 60  1  0
 22 61  1  0
 22 62  1  0
 24 63  1  0
 24 64  1  0
 25 65  1  0
 25 66  1  0
 27 67  1  6
 28 68  1  0
 28 69  1  0
 29 70  1  0
 29 71  1  0
 31 72  1  0
 31 73  1  0
 31 74  1  0
 32 75  1  0
 33 76  1  0
 33 77  1  0
 34 78  1  0
 34 79  1  0
 35 80  1  0
 35 81  1  0
 36 82  1  0
 36 83  1  0
 37 84  1  0
 37 85  1  0
 38 86  1  0
 38 87  1  0
 39 88  1  0
 39 89  1  0
M  END
$$$$
