
     RDKit          3D

 81 87  0  0  0  0  0  0  0  0999 V2000
   -4.4306    1.4535   -2.3732 C   0  0  0  0  0  0  0  0  0  0  0  0
   -5.8917    1.4605   -2.3453 N   0  0  0  0  0  0  0  0  0  0  0  0
   -6.4460    0.1039   -2.4771 C   0  0  0  0  0  0  0  0  0  0  0  0
   -6.5173   -0.6884   -1.2009 C   0  0  0  0  0  0  0  0  0  0  0  0
   -6.3698   -0.1306    0.0134 C   0  0  0  0  0  0  0  0  0  0  0  0
   -6.4492   -0.9463    1.2350 C   0  0  0  0  0  0  0  0  0  0  0  0
   -7.7300   -1.2058    1.7557 C   0  0  0  0  0  0  0  0  0  0  0  0
   -7.8859   -1.9566    2.9160 C   0  0  0  0  0  0  0  0  0  0  0  0
   -6.7638   -2.4517    3.5641 C   0  0  0  0  0  0  0  0  0  0  0  0
   -5.4906   -2.2003    3.0447 C   0  0  0  0  0  0  0  0  0  0  0  0
   -5.2814   -1.4515    1.8628 C   0  0  0  0  0  0  0  0  0  0  0  0
   -3.8080   -1.1977    1.2983 C   0  0  0  0  0  0  0  0  0  0  0  0
   -2.7767   -2.3595    1.2890 C   0  0  0  0  0  0  0  0  0  0  0  0
   -1.6600   -1.3178    1.6167 C   0  0  0  0  0  0  0  0  0  0  0  0
   -0.6643   -1.8334    2.6667 C   0  0  0  0  0  0  0  0  0  0  0  0
    0.6264   -1.0237    2.6266 C   0  0  0  0  0  0  0  0  0  0  0  0
    1.2735   -1.1271    1.3174 N   0  0  0  0  0  0  0  0  0  0  0  0
    2.6684   -1.0433    1.2480 C   0  0  0  0  0  0  0  0  0  0  0  0
    3.3337   -0.8261    2.2683 O   0  0  0  0  0  0  0  0  0  0  0  0
    3.3237   -1.2594   -0.1488 C   0  0  0  0  0  0  0  0  0  0  0  0
    3.4334   -0.0344   -1.0878 C   0  0  0  0  0  0  0  0  0  0  0  0
    4.9572    0.0596   -0.7898 C   0  0  0  0  0  0  0  0  0  0  0  0
    5.8538    0.1375   -2.0366 C   0  0  0  0  0  0  0  0  0  0  0  0
    6.2557    1.5875   -2.2982 C   0  0  0  0  0  0  0  0  0  0  0  0
    7.0497    2.1656   -1.2020 N   0  0  0  0  0  0  0  0  0  0  0  0
    8.4929    2.1918   -1.4898 C   0  0  0  0  0  0  0  0  0  0  0  0
    9.0524    3.3144   -2.3211 C   0  0  0  0  0  0  0  0  0  0  0  0
    9.3495    3.2522   -0.8525 C   0  0  0  0  0  0  0  0  0  0  0  0
    6.7662    1.5551    0.1093 C   0  0  0  0  0  0  0  0  0  0  0  0
    5.2984    1.1521    0.2409 C   0  0  0  0  0  0  0  0  0  0  0  0
    4.8660   -1.3837   -0.2185 C   0  0  0  0  0  0  0  0  0  0  0  0
    0.4022   -1.3253    0.1585 C   0  0  0  0  0  0  0  0  0  0  0  0
   -0.9720   -0.7022    0.3823 C   0  0  0  0  0  0  0  0  0  0  0  0
   -2.8036   -0.4191    2.1892 C   0  0  0  0  0  0  0  0  0  0  0  0
   -6.1478    1.3502    0.1744 C   0  0  0  0  0  0  0  0  0  0  0  0
   -6.4168    2.1157   -1.1353 C   0  0  0  0  0  0  0  0  0  0  0  0
   -3.9827    0.8539   -1.5745 H   0  0  0  0  0  0  0  0  0  0  0  0
   -4.0716    1.0609   -3.3313 H   0  0  0  0  0  0  0  0  0  0  0  0
   -4.0412    2.4746   -2.2929 H   0  0  0  0  0  0  0  0  0  0  0  0
   -5.8798   -0.4644   -3.2255 H   0  0  0  0  0  0  0  0  0  0  0  0
   -7.4647    0.1847   -2.8770 H   0  0  0  0  0  0  0  0  0  0  0  0
   -6.7077   -1.7539   -1.3001 H   0  0  0  0  0  0  0  0  0  0  0  0
   -8.6126   -0.8145    1.2542 H   0  0  0  0  0  0  0  0  0  0  0  0
   -8.8787   -2.1496    3.3127 H   0  0  0  0  0  0  0  0  0  0  0  0
   -6.8727   -3.0350    4.4748 H   0  0  0  0  0  0  0  0  0  0  0  0
   -4.6319   -2.5999    3.5814 H   0  0  0  0  0  0  0  0  0  0  0  0
   -3.8461   -0.7493    0.2953 H   0  0  0  0  0  0  0  0  0  0  0  0
   -2.9264   -3.1150    2.0690 H   0  0  0  0  0  0  0  0  0  0  0  0
   -2.6757   -2.8832    0.3329 H   0  0  0  0  0  0  0  0  0  0  0  0
   -1.0966   -1.8017    3.6732 H   0  0  0  0  0  0  0  0  0  0  0  0
   -0.4242   -2.8852    2.4612 H   0  0  0  0  0  0  0  0  0  0  0  0
    1.3058   -1.3726    3.4115 H   0  0  0  0  0  0  0  0  0  0  0  0
    0.4261    0.0391    2.8067 H   0  0  0  0  0  0  0  0  0  0  0  0
    2.8648   -2.1233   -0.6514 H   0  0  0  0  0  0  0  0  0  0  0  0
    3.1790   -0.2742   -2.1274 H   0  0  0  0  0  0  0  0  0  0  0  0
    2.8357    0.8352   -0.7952 H   0  0  0  0  0  0  0  0  0  0  0  0
    6.7590   -0.4674   -1.8935 H   0  0  0  0  0  0  0  0  0  0  0  0
    5.3443   -0.2741   -2.9156 H   0  0  0  0  0  0  0  0  0  0  0  0
    5.3514    2.1973   -2.4189 H   0  0  0  0  0  0  0  0  0  0  0  0
    6.7925    1.6562   -3.2523 H   0  0  0  0  0  0  0  0  0  0  0  0
    8.9551    1.2151   -1.6245 H   0  0  0  0  0  0  0  0  0  0  0  0
    9.8517    3.0803   -3.0135 H   0  0  0  0  0  0  0  0  0  0  0  0
    8.3741    4.0859   -2.6664 H   0  0  0  0  0  0  0  0  0  0  0  0
    8.8722    3.9830   -0.2101 H   0  0  0  0  0  0  0  0  0  0  0  0
   10.3505    2.9751   -0.5453 H   0  0  0  0  0  0  0  0  0  0  0  0
    7.0148    2.2760    0.8966 H   0  0  0  0  0  0  0  0  0  0  0  0
    7.3952    0.6692    0.2700 H   0  0  0  0  0  0  0  0  0  0  0  0
    4.6699    2.0383    0.0823 H   0  0  0  0  0  0  0  0  0  0  0  0
    5.1038    0.8122    1.2631 H   0  0  0  0  0  0  0  0  0  0  0  0
    5.3815   -1.5516    0.7323 H   0  0  0  0  0  0  0  0  0  0  0  0
    5.1932   -2.1691   -0.9120 H   0  0  0  0  0  0  0  0  0  0  0  0
    0.8554   -0.8888   -0.7346 H   0  0  0  0  0  0  0  0  0  0  0  0
    0.3171   -2.4063   -0.0020 H   0  0  0  0  0  0  0  0  0  0  0  0
   -0.8428    0.3777    0.5327 H   0  0  0  0  0  0  0  0  0  0  0  0
   -1.5841   -0.8239   -0.5187 H   0  0  0  0  0  0  0  0  0  0  0  0
   -2.7311    0.6521    1.9760 H   0  0  0  0  0  0  0  0  0  0  0  0
   -2.9784   -0.5346    3.2658 H   0  0  0  0  0  0  0  0  0  0  0  0
   -5.1157    1.5282    0.5001 H   0  0  0  0  0  0  0  0  0  0  0  0
   -6.8070    1.7526    0.9532 H   0  0  0  0  0  0  0  0  0  0  0  0
   -6.0176    3.1344   -1.0532 H   0  0  0  0  0  0  0  0  0  0  0  0
   -7.5017    2.2400   -1.2575 H   0  0  0  0  0  0  0  0  0  0  0  0
  1  2  1  0
  2  3  1  0
  3  4  1  0
  4  5  2  0
  5  6  1  0
  6  7  2  0
  7  8  1  0
  8  9  2  0
  9 10  1  0
 10 11  2  0
 11 12  1  0
 12 13  1  0
 13 14  1  0
 14 15  1  0
 15 16  1  0
 16 17  1  0
 17 18  1  0
 18 19  2  0
 18 20  1  0
 20 21  1  0
 21 22  1  0
 22 23  1  0
 23 24  1  0
 24 25  1  0
 25 26  1  0
 26 27  1  0
 27 28  1  0
 25 29  1  0
 29 30  1  0
 22 31  1  0
 17 32  1  0
 32 33  1  0
 14 34  1  0
  5 35  1  0
 35 36  1  0
 36  2  1  0
 11  6  1  0
 34 12  1  0
 33 14  1  0
 31 20  1  0
 30 22  1  0
 28 26  1  0
  1 37  1  0
  1 38  1  0
  1 39  1  0
  3 40  1  0
  3 41  1  0
  4 42  1  0
  7 43  1  0
  8 44  1  0
  9 45  1  0
 10 46  1  0
 12 47  1  0
 13 48  1  0
 13 49  1  0
 15 50  1  0
 15 51  1  0
 16 52  1  0
 16 53  1  0
 20 54  1  0
 21 55  1  0
 21 56  1  0
 23 57  1  0
 23 58  1  0
 24 59  1  0
 24 60  1  0
 26 61  1  0
 27 62  1  0
 27 63  1  0
 28 64  1  0
 28 65  1  0
 29 66  1  0
 29 67  1  0
 30 68  1  0
 30 69  1  0
 31 70  1  0
 31 71  1  0
 32 72  1  0
 32 73  1  0
 33 74  1  0
 33 75  1  0
 34 76  1  0
 34 77  1  0
 35 78  1  0
 35 79  1  0
 36 80  1  0
 36 81  1  0
M  END
$$$$

     RDKit          3D

 81 87  0  0  0  0  0  0  0  0999 V2000
   -4.6791    1.1278    3.7432 C   0  0  0  0  0  0  0  0  0  0  0  0
   -4.7690    0.6637    2.3614 N   0  0  0  0  0  0  0  0  0  0  0  0
   -5.0535    1.7896    1.4568 C   0  0  0  0  0  0  0  0  0  0  0  0
   -5.3968    1.3607    0.0579 C   0  0  0  0  0  0  0  0  0  0  0  0
   -5.7102    0.0919   -0.2587 C   0  0  0  0  0  0  0  0  0  0  0  0
   -6.0289   -0.2847   -1.6455 C   0  0  0  0  0  0  0  0  0  0  0  0
   -7.3006    0.0688   -2.1338 C   0  0  0  0  0  0  0  0  0  0  0  0
   -7.6870   -0.2714   -3.4259 C   0  0  0  0  0  0  0  0  0  0  0  0
   -6.8073   -0.9709   -4.2387 C   0  0  0  0  0  0  0  0  0  0  0  0
   -5.5411   -1.3181   -3.7592 C   0  0  0  0  0  0  0  0  0  0  0  0
   -5.0967   -0.9792   -2.4598 C   0  0  0  0  0  0  0  0  0  0  0  0
   -3.6342   -1.3926   -1.9615 C   0  0  0  0  0  0  0  0  0  0  0  0
   -2.5154   -1.6774   -3.0080 C   0  0  0  0  0  0  0  0  0  0  0  0
   -1.4804   -1.0689   -2.0105 C   0  0  0  0  0  0  0  0  0  0  0  0
   -0.8544   -2.1142   -1.0663 C   0  0  0  0  0  0  0  0  0  0  0  0
    0.4486   -1.5913   -0.4695 C   0  0  0  0  0  0  0  0  0  0  0  0
    1.4251   -1.2865   -1.5171 N   0  0  0  0  0  0  0  0  0  0  0  0
    2.8104   -1.4083   -1.3677 C   0  0  0  0  0  0  0  0  0  0  0  0
    3.5624   -1.2251   -2.3339 O   0  0  0  0  0  0  0  0  0  0  0  0
    3.3492   -1.7815    0.0434 C   0  0  0  0  0  0  0  0  0  0  0  0
    3.1821   -0.7509    1.1889 C   0  0  0  0  0  0  0  0  0  0  0  0
    4.6792   -0.3528    1.0387 C   0  0  0  0  0  0  0  0  0  0  0  0
    4.8807    0.9142    0.1857 C   0  0  0  0  0  0  0  0  0  0  0  0
    6.2427    1.5365    0.4890 C   0  0  0  0  0  0  0  0  0  0  0  0
    6.3332    1.9984    1.8858 N   0  0  0  0  0  0  0  0  0  0  0  0
    7.7289    2.2260    2.2942 C   0  0  0  0  0  0  0  0  0  0  0  0
    8.0292    3.3003    3.3042 C   0  0  0  0  0  0  0  0  0  0  0  0
    8.4210    3.4928    1.8694 C   0  0  0  0  0  0  0  0  0  0  0  0
    5.5899    1.1487    2.8302 C   0  0  0  0  0  0  0  0  0  0  0  0
    5.4688   -0.2981    2.3562 C   0  0  0  0  0  0  0  0  0  0  0  0
    4.8801   -1.6957    0.2816 C   0  0  0  0  0  0  0  0  0  0  0  0
    0.8963   -0.8491   -2.8100 C   0  0  0  0  0  0  0  0  0  0  0  0
   -0.4406   -0.1351   -2.6485 C   0  0  0  0  0  0  0  0  0  0  0  0
   -2.6863   -0.2894   -1.4054 C   0  0  0  0  0  0  0  0  0  0  0  0
   -5.7769   -0.9773    0.8001 C   0  0  0  0  0  0  0  0  0  0  0  0
   -5.7918   -0.3834    2.2204 C   0  0  0  0  0  0  0  0  0  0  0  0
   -5.6229    1.5558    4.1002 H   0  0  0  0  0  0  0  0  0  0  0  0
   -4.4032    0.3019    4.4082 H   0  0  0  0  0  0  0  0  0  0  0  0
   -3.8956    1.8871    3.8439 H   0  0  0  0  0  0  0  0  0  0  0  0
   -4.1651    2.4305    1.4079 H   0  0  0  0  0  0  0  0  0  0  0  0
   -5.8826    2.4026    1.8337 H   0  0  0  0  0  0  0  0  0  0  0  0
   -5.3743    2.1322   -0.7071 H   0  0  0  0  0  0  0  0  0  0  0  0
   -7.9990    0.6074   -1.4968 H   0  0  0  0  0  0  0  0  0  0  0  0
   -8.6722    0.0032   -3.7920 H   0  0  0  0  0  0  0  0  0  0  0  0
   -7.1004   -1.2497   -5.2474 H   0  0  0  0  0  0  0  0  0  0  0  0
   -4.8791   -1.8724   -4.4221 H   0  0  0  0  0  0  0  0  0  0  0  0
   -3.7209   -2.2390   -1.2625 H   0  0  0  0  0  0  0  0  0  0  0  0
   -2.3771   -2.7319   -3.2660 H   0  0  0  0  0  0  0  0  0  0  0  0
   -2.6191   -1.1114   -3.9421 H   0  0  0  0  0  0  0  0  0  0  0  0
   -0.6376   -3.0336   -1.6259 H   0  0  0  0  0  0  0  0  0  0  0  0
   -1.5443   -2.3894   -0.2605 H   0  0  0  0  0  0  0  0  0  0  0  0
    0.2708   -0.6658    0.0899 H   0  0  0  0  0  0  0  0  0  0  0  0
    0.8523   -2.3319    0.2246 H   0  0  0  0  0  0  0  0  0  0  0  0
    2.9896   -2.7819    0.3234 H   0  0  0  0  0  0  0  0  0  0  0  0
    2.4612    0.0529    1.0108 H   0  0  0  0  0  0  0  0  0  0  0  0
    2.9222   -1.2219    2.1449 H   0  0  0  0  0  0  0  0  0  0  0  0
    4.0956    1.6505    0.4022 H   0  0  0  0  0  0  0  0  0  0  0  0
    4.8111    0.6914   -0.8842 H   0  0  0  0  0  0  0  0  0  0  0  0
    7.0278    0.8000    0.2711 H   0  0  0  0  0  0  0  0  0  0  0  0
    6.4060    2.3909   -0.1778 H   0  0  0  0  0  0  0  0  0  0  0  0
    8.3478    1.3314    2.3430 H   0  0  0  0  0  0  0  0  0  0  0  0
    7.2052    3.8917    3.6859 H   0  0  0  0  0  0  0  0  0  0  0  0
    8.8140    3.1097    4.0259 H   0  0  0  0  0  0  0  0  0  0  0  0
    9.4719    3.4325    1.6145 H   0  0  0  0  0  0  0  0  0  0  0  0
    7.8615    4.2150    1.2864 H   0  0  0  0  0  0  0  0  0  0  0  0
    6.0468    1.1744    3.8271 H   0  0  0  0  0  0  0  0  0  0  0  0
    4.5858    1.5749    2.9503 H   0  0  0  0  0  0  0  0  0  0  0  0
    6.4739   -0.7173    2.2157 H   0  0  0  0  0  0  0  0  0  0  0  0
    4.9869   -0.9061    3.1307 H   0  0  0  0  0  0  0  0  0  0  0  0
    5.5111   -1.6484   -0.6113 H   0  0  0  0  0  0  0  0  0  0  0  0
    5.2549   -2.5172    0.9060 H   0  0  0  0  0  0  0  0  0  0  0  0
    1.6145   -0.1835   -3.3008 H   0  0  0  0  0  0  0  0  0  0  0  0
    0.7875   -1.7428   -3.4358 H   0  0  0  0  0  0  0  0  0  0  0  0
   -0.2927    0.7440   -2.0072 H   0  0  0  0  0  0  0  0  0  0  0  0
   -0.7852    0.2397   -3.6189 H   0  0  0  0  0  0  0  0  0  0  0  0
   -2.8518    0.6999   -1.8513 H   0  0  0  0  0  0  0  0  0  0  0  0
   -2.6735   -0.1772   -0.3171 H   0  0  0  0  0  0  0  0  0  0  0  0
   -6.6773   -1.5896    0.6689 H   0  0  0  0  0  0  0  0  0  0  0  0
   -4.9113   -1.6426    0.7002 H   0  0  0  0  0  0  0  0  0  0  0  0
   -6.7900    0.0151    2.4481 H   0  0  0  0  0  0  0  0  0  0  0  0
   -5.6010   -1.1982    2.9298 H   0  0  0  0  0  0  0  0  0  0  0  0
  1  2  1  0
  2  3  1  0
  3  4  1  0
  4  5  2  0
  5  6  1  0
  6  7  2  0
  7  8  1  0
  8  9  2  0
  9 10  1  0
 10 11  2  0
 11 12  1  0
 12 13  1  0
 13 14  1  0
 14 15  1  0
 15 16  1  0
 16 17  1  0
 17 18  1  0
 18 19  2  0
 18 20  1  0
 20 21  1  0
 21 22  1  0
 22 23  1  0
 23 24  1  0
 24 25  1  0
 25 26  1  0
 26 27  1  0
 27 28  1  0
 25 29  1  0
 29 30  1  0
 22 31  1  0
 17 32  1  0
 32 33  1  0
 14 34  1  0
  5 35  1  0
 35 36  1  0
 36  2  1  0
 11  6  1  0
 34 12  1  0
 33 14  1  0
 31 20  1  0
 30 22  1  0
 28 26  1  0
  1 37  1  0
  1 38  1  0
  1 39  1  0
  3 40  1  0
  3 41  1  0
  4 42  1  0
  7 43  1  0
  8 44  1  0
  9 45  1  0
 10 46  1  0
 12 47  1  0
 13 48  1  0
 13 49  1  0
 15 50  1  0
 15 51  1  0
 16 52  1  0
 16 53  1  0
 20 54  1  0
 21 55  1  0
 21 56  1  0
 23 57  1  0
 23 58  1  0
 24 59  1  0
 24 60  1  0
 26 61  1  0
 27 62  1  0
 27 63  1  0
 28 64  1  0
 28 65  1  0
 29 66  1  0
 29 67  1  0
 30 68  1  0
 30 69  1  0
 31 70  1  0
 31 71  1  0
 32 72  1  0
 32 73  1  0
 33 74  1  0
 33 75  1  0
 34 76  1  0
 34 77  1  0
 35 78  1  0
 35 79  1  0
 36 80  1  0
 36 81  1  0
M  END
$$$$

     RDKit          3D

 81 87  0  0  0  0  0  0  0  0999 V2000
   -7.6172    3.4296   -1.4184 C   0  0  0  0  0  0  0  0  0  0  0  0
   -6.7661    2.2697   -1.1677 N   0  0  0  0  0  0  0  0  0  0  0  0
   -7.5156    1.2235   -0.4552 C   0  0  0  0  0  0  0  0  0  0  0  0
   -6.7758   -0.0811   -0.3636 C   0  0  0  0  0  0  0  0  0  0  0  0
   -5.6905   -0.3625   -1.1065 C   0  0  0  0  0  0  0  0  0  0  0  0
   -4.9989   -1.6602   -0.9795 C   0  0  0  0  0  0  0  0  0  0  0  0
   -5.1023   -2.5534   -2.0628 C   0  0  0  0  0  0  0  0  0  0  0  0
   -4.5023   -3.8070   -2.0154 C   0  0  0  0  0  0  0  0  0  0  0  0
   -3.8004   -4.1830   -0.8810 C   0  0  0  0  0  0  0  0  0  0  0  0
   -3.6968   -3.3026    0.2002 C   0  0  0  0  0  0  0  0  0  0  0  0
   -4.2757   -2.0119    0.1952 C   0  0  0  0  0  0  0  0  0  0  0  0
   -4.1332   -1.0142    1.4542 C   0  0  0  0  0  0  0  0  0  0  0  0
   -3.3520    0.3157    1.2467 C   0  0  0  0  0  0  0  0  0  0  0  0
   -2.1431   -0.2859    2.0182 C   0  0  0  0  0  0  0  0  0  0  0  0
   -1.5518    0.6979    3.0407 C   0  0  0  0  0  0  0  0  0  0  0  0
   -0.1449    0.2713    3.4428 C   0  0  0  0  0  0  0  0  0  0  0  0
    0.7509    0.2556    2.2860 N   0  0  0  0  0  0  0  0  0  0  0  0
    2.1115    0.5071    2.4850 C   0  0  0  0  0  0  0  0  0  0  0  0
    2.5625    0.6553    3.6281 O   0  0  0  0  0  0  0  0  0  0  0  0
    3.0097    0.6065    1.2186 C   0  0  0  0  0  0  0  0  0  0  0  0
    3.7115   -0.6939    0.7448 C   0  0  0  0  0  0  0  0  0  0  0  0
    4.9631    0.1579    0.3694 C   0  0  0  0  0  0  0  0  0  0  0  0
    4.9592    0.6258   -1.0984 C   0  0  0  0  0  0  0  0  0  0  0  0
    6.3808    0.9703   -1.5440 C   0  0  0  0  0  0  0  0  0  0  0  0
    7.2446   -0.2138   -1.5156 N   0  0  0  0  0  0  0  0  0  0  0  0
    8.6795   -0.0156   -1.7721 C   0  0  0  0  0  0  0  0  0  0  0  0
    9.5185    0.8533   -0.8744 C   0  0  0  0  0  0  0  0  0  0  0  0
    9.2681    1.2650   -2.2968 C   0  0  0  0  0  0  0  0  0  0  0  0
    6.9670   -1.1388   -0.4068 C   0  0  0  0  0  0  0  0  0  0  0  0
    6.3098   -0.4490    0.7870 C   0  0  0  0  0  0  0  0  0  0  0  0
    4.4330    1.2075    1.3919 C   0  0  0  0  0  0  0  0  0  0  0  0
    0.1498   -0.0341    0.9837 C   0  0  0  0  0  0  0  0  0  0  0  0
   -1.0720   -0.9370    1.1216 C   0  0  0  0  0  0  0  0  0  0  0  0
   -3.1483   -1.3124    2.6188 C   0  0  0  0  0  0  0  0  0  0  0  0
   -5.1943    0.6163   -2.1426 C   0  0  0  0  0  0  0  0  0  0  0  0
   -6.2087    1.7412   -2.4203 C   0  0  0  0  0  0  0  0  0  0  0  0
   -8.0045    3.8335   -0.4764 H   0  0  0  0  0  0  0  0  0  0  0  0
   -8.4676    3.1888   -2.0665 H   0  0  0  0  0  0  0  0  0  0  0  0
   -7.0415    4.2330   -1.8912 H   0  0  0  0  0  0  0  0  0  0  0  0
   -7.7181    1.5718    0.5647 H   0  0  0  0  0  0  0  0  0  0  0  0
   -8.4833    1.0297   -0.9361 H   0  0  0  0  0  0  0  0  0  0  0  0
   -7.1663   -0.8087    0.3429 H   0  0  0  0  0  0  0  0  0  0  0  0
   -5.6698   -2.2763   -2.9485 H   0  0  0  0  0  0  0  0  0  0  0  0
   -4.5923   -4.4886   -2.8564 H   0  0  0  0  0  0  0  0  0  0  0  0
   -3.3344   -5.1636   -0.8278 H   0  0  0  0  0  0  0  0  0  0  0  0
   -3.1439   -3.6445    1.0713 H   0  0  0  0  0  0  0  0  0  0  0  0
   -5.1371   -0.8333    1.8660 H   0  0  0  0  0  0  0  0  0  0  0  0
   -3.8331    1.1682    1.7432 H   0  0  0  0  0  0  0  0  0  0  0  0
   -3.1390    0.6089    0.2155 H   0  0  0  0  0  0  0  0  0  0  0  0
   -2.1882    0.7788    3.9291 H   0  0  0  0  0  0  0  0  0  0  0  0
   -1.5010    1.7021    2.5990 H   0  0  0  0  0  0  0  0  0  0  0  0
    0.2439    0.9515    4.2082 H   0  0  0  0  0  0  0  0  0  0  0  0
   -0.1490   -0.7403    3.8655 H   0  0  0  0  0  0  0  0  0  0  0  0
    2.4919    1.1221    0.3967 H   0  0  0  0  0  0  0  0  0  0  0  0
    3.8752   -1.4195    1.5514 H   0  0  0  0  0  0  0  0  0  0  0  0
    3.2198   -1.2165   -0.0813 H   0  0  0  0  0  0  0  0  0  0  0  0
    4.3082    1.4969   -1.2365 H   0  0  0  0  0  0  0  0  0  0  0  0
    4.5630   -0.1650   -1.7492 H   0  0  0  0  0  0  0  0  0  0  0  0
    6.7717    1.7644   -0.8960 H   0  0  0  0  0  0  0  0  0  0  0  0
    6.3421    1.3640   -2.5660 H   0  0  0  0  0  0  0  0  0  0  0  0
    9.1629   -0.9222   -2.1376 H   0  0  0  0  0  0  0  0  0  0  0  0
    9.0342    1.4197   -0.0887 H   0  0  0  0  0  0  0  0  0  0  0  0
   10.5085    0.4977   -0.6137 H   0  0  0  0  0  0  0  0  0  0  0  0
   10.0899    1.1858   -3.0000 H   0  0  0  0  0  0  0  0  0  0  0  0
    8.6361    2.1258   -2.4705 H   0  0  0  0  0  0  0  0  0  0  0  0
    7.8809   -1.6463   -0.0741 H   0  0  0  0  0  0  0  0  0  0  0  0
    6.3021   -1.9270   -0.7818 H   0  0  0  0  0  0  0  0  0  0  0  0
    6.1826   -1.1647    1.6075 H   0  0  0  0  0  0  0  0  0  0  0  0
    6.9786    0.3358    1.1639 H   0  0  0  0  0  0  0  0  0  0  0  0
    4.5355    2.2568    1.0981 H   0  0  0  0  0  0  0  0  0  0  0  0
    4.8471    1.0975    2.4019 H   0  0  0  0  0  0  0  0  0  0  0  0
   -0.1253    0.9261    0.5319 H   0  0  0  0  0  0  0  0  0  0  0  0
    0.8813   -0.5162    0.3306 H   0  0  0  0  0  0  0  0  0  0  0  0
   -1.4668   -1.1664    0.1262 H   0  0  0  0  0  0  0  0  0  0  0  0
   -0.7503   -1.8893    1.5631 H   0  0  0  0  0  0  0  0  0  0  0  0
   -2.7814   -2.3349    2.7323 H   0  0  0  0  0  0  0  0  0  0  0  0
   -3.5629   -1.0211    3.5935 H   0  0  0  0  0  0  0  0  0  0  0  0
   -4.9766    0.1110   -3.0906 H   0  0  0  0  0  0  0  0  0  0  0  0
   -4.2543    1.0579   -1.7906 H   0  0  0  0  0  0  0  0  0  0  0  0
   -7.0087    1.3672   -3.0739 H   0  0  0  0  0  0  0  0  0  0  0  0
   -5.6898    2.5360   -2.9703 H   0  0  0  0  0  0  0  0  0  0  0  0
  1  2  1  0
  2  3  1  0
  3  4  1  0
  4  5  2  0
  5  6  1  0
  6  7  2  0
  7  8  1  0
  8  9  2  0
  9 10  1  0
 10 11  2  0
 11 12  1  0
 12 13  1  0
 13 14  1  0
 14 15  1  0
 15 16  1  0
 16 17  1  0
 17 18  1  0
 18 19  2  0
 18 20  1  0
 20 21  1  0
 21 22  1  0
 22 23  1  0
 23 24  1  0
 24 25  1  0
 25 26  1  0
 26 27  1  0
 27 28  1  0
 25 29  1  0
 29 30  1  0
 22 31  1  0
 17 32  1  0
 32 33  1  0
 14 34  1  0
  5 35  1  0
 35 36  1  0
 36  2  1  0
 11  6  1  0
 34 12  1  0
 33 14  1  0
 31 20  1  0
 30 22  1  0
 28 26  1  0
  1 37  1  0
  1 38  1  0
  1 39  1  0
  3 40  1  0
  3 41  1  0
  4 42  1  0
  7 43  1  0
  8 44  1  0
  9 45  1  0
 10 46  1  0
 12 47  1  0
 13 48  1  0
 13 49  1  0
 15 50  1  0
 15 51  1  0
 16 52  1  0
 16 53  1  0
 20 54  1  0
 21 55  1  0
 21 56  1  0
 23 57  1  0
 23 58  1  0
 24 59  1  0
 24 60  1  0
 26 61  1  0
 27 62  1  0
 27 63  1  0
 28 64  1  0
 28 65  1  0
 29 66  1  0
 29 67  1  0
 30 68  1  0
 30 69  1  0
 31 70  1  0
 31 71  1  0
 32 72  1  0
 32 73  1  0
 33 74  1  0
 33 75  1  0
 34 76  1  0
 34 77  1  0
 35 78  1  0
 35 79  1  0
 36 80  1  0
 36 81  1  0
M  END
$$$$
