
     RDKit          3D

 83 88  0  0  0  0  0  0  0  0999 V2000
   -4.8460   -3.1019    2.8214 C   0  0  0  0  0  0  0  0  0  0  0  0
   -4.5102   -2.0700    1.8436 N   0  0  0  0  0  0  0  0  0  0  0  0
   -5.6262   -1.1221    1.6916 C   0  0  0  0  0  0  0  0  0  0  0  0
   -5.4417   -0.1664    0.5469 C   0  0  0  0  0  0  0  0  0  0  0  0
   -4.5309   -0.3623   -0.4227 C   0  0  0  0  0  0  0  0  0  0  0  0
   -4.3715    0.6072   -1.5191 C   0  0  0  0  0  0  0  0  0  0  0  0
   -5.1213    0.3773   -2.6860 C   0  0  0  0  0  0  0  0  0  0  0  0
   -5.0375    1.2464   -3.7709 C   0  0  0  0  0  0  0  0  0  0  0  0
   -4.2010    2.3528   -3.7014 C   0  0  0  0  0  0  0  0  0  0  0  0
   -3.4558    2.5968   -2.5452 C   0  0  0  0  0  0  0  0  0  0  0  0
   -3.5285    1.7422   -1.4288 C   0  0  0  0  0  0  0  0  0  0  0  0
   -2.7132    2.0252   -0.1678 C   0  0  2  0  0  0  0  0  0  0  0  0
   -2.3899    3.5127    0.1935 C   0  0  0  0  0  0  0  0  0  0  0  0
   -1.4722    3.6573    1.3612 N   0  0  0  0  0  0  0  0  0  0  0  0
   -1.7845    4.8464    2.1424 C   0  0  0  0  0  0  0  0  0  0  0  0
   -1.4349    2.4400    2.1854 C   0  0  0  0  0  0  0  0  0  0  0  0
   -1.0327    1.1740    1.3724 C   0  0  0  0  0  0  0  0  0  0  0  0
   -1.5036    1.1980   -0.0202 N   0  0  0  0  0  0  0  0  0  0  0  0
   -0.5312    1.2597   -1.0313 C   0  0  0  0  0  0  0  0  0  0  0  0
   -0.5349    2.1650   -1.8779 O   0  0  0  0  0  0  0  0  0  0  0  0
    0.4894    0.1070   -1.1405 C   0  0  0  0  0  0  0  0  0  0  0  0
    0.3934   -1.2084   -0.3356 C   0  0  0  0  0  0  0  0  0  0  0  0
    1.9493   -1.2287   -0.2437 C   0  0  0  0  0  0  0  0  0  0  0  0
    2.6265   -2.0890   -1.3228 C   0  0  0  0  0  0  0  0  0  0  0  0
    4.0548   -2.4919   -0.9183 C   0  0  0  0  0  0  0  0  0  0  0  0
    4.7036   -1.4432   -0.1217 N   0  0  0  0  0  0  0  0  0  0  0  0
    6.1705   -1.6347    0.0378 C   0  0  0  0  0  0  0  0  0  0  0  0
    6.8296   -0.5581    0.9330 C   0  0  0  0  0  0  0  0  0  0  0  0
    6.8298    0.8050    0.2498 C   0  0  0  0  0  0  0  0  0  0  0  0
    7.5303    0.7415   -0.9932 O   0  0  0  0  0  0  0  0  0  0  0  0
    6.9225   -0.1837   -1.8964 C   0  0  0  0  0  0  0  0  0  0  0  0
    6.9354   -1.5879   -1.3044 C   0  0  0  0  0  0  0  0  0  0  0  0
    4.0103   -1.2954    1.1771 C   0  0  0  0  0  0  0  0  0  0  0  0
    2.4995   -1.5737    1.1355 C   0  0  0  0  0  0  0  0  0  0  0  0
    1.9070    0.3017   -0.5556 C   0  0  0  0  0  0  0  0  0  0  0  0
   -3.6705   -1.5979   -0.4451 C   0  0  0  0  0  0  0  0  0  0  0  0
   -4.1646   -2.6684    0.5444 C   0  0  0  0  0  0  0  0  0  0  0  0
   -5.0762   -2.6507    3.7930 H   0  0  0  0  0  0  0  0  0  0  0  0
   -5.7050   -3.7069    2.5094 H   0  0  0  0  0  0  0  0  0  0  0  0
   -3.9935   -3.7716    2.9804 H   0  0  0  0  0  0  0  0  0  0  0  0
   -5.7126   -0.5349    2.6136 H   0  0  0  0  0  0  0  0  0  0  0  0
   -6.5787   -1.6475    1.5440 H   0  0  0  0  0  0  0  0  0  0  0  0
   -6.0853    0.7090    0.5322 H   0  0  0  0  0  0  0  0  0  0  0  0
   -5.7762   -0.4886   -2.7527 H   0  0  0  0  0  0  0  0  0  0  0  0
   -5.6158    1.0546   -4.6701 H   0  0  0  0  0  0  0  0  0  0  0  0
   -4.1137    3.0255   -4.5508 H   0  0  0  0  0  0  0  0  0  0  0  0
   -2.7869    3.4545   -2.5461 H   0  0  0  0  0  0  0  0  0  0  0  0
   -3.3770    1.7036    0.6467 H   0  0  0  0  0  0  0  0  0  0  0  0
   -1.9095    4.0316   -0.6418 H   0  0  0  0  0  0  0  0  0  0  0  0
   -3.3446    4.0244    0.3759 H   0  0  0  0  0  0  0  0  0  0  0  0
   -1.0445    4.9902    2.9372 H   0  0  0  0  0  0  0  0  0  0  0  0
   -2.7768    4.7872    2.6035 H   0  0  0  0  0  0  0  0  0  0  0  0
   -1.7483    5.7415    1.5116 H   0  0  0  0  0  0  0  0  0  0  0  0
   -0.7205    2.5552    3.0099 H   0  0  0  0  0  0  0  0  0  0  0  0
   -2.4170    2.2722    2.6481 H   0  0  0  0  0  0  0  0  0  0  0  0
    0.0540    1.0780    1.4023 H   0  0  0  0  0  0  0  0  0  0  0  0
   -1.4732    0.2926    1.8514 H   0  0  0  0  0  0  0  0  0  0  0  0
    0.5693   -0.1492   -2.2123 H   0  0  0  0  0  0  0  0  0  0  0  0
   -0.1024   -1.1494    0.6363 H   0  0  0  0  0  0  0  0  0  0  0  0
   -0.0631   -2.0418   -0.8803 H   0  0  0  0  0  0  0  0  0  0  0  0
    2.0523   -3.0084   -1.4918 H   0  0  0  0  0  0  0  0  0  0  0  0
    2.6516   -1.5532   -2.2797 H   0  0  0  0  0  0  0  0  0  0  0  0
    4.5857   -2.7079   -1.8488 H   0  0  0  0  0  0  0  0  0  0  0  0
    4.0338   -3.4338   -0.3536 H   0  0  0  0  0  0  0  0  0  0  0  0
    6.3441   -2.6152    0.5012 H   0  0  0  0  0  0  0  0  0  0  0  0
    7.8712   -0.8583    1.1118 H   0  0  0  0  0  0  0  0  0  0  0  0
    6.3631   -0.4923    1.9206 H   0  0  0  0  0  0  0  0  0  0  0  0
    7.3491    1.5330    0.8813 H   0  0  0  0  0  0  0  0  0  0  0  0
    5.8150    1.1826    0.0810 H   0  0  0  0  0  0  0  0  0  0  0  0
    5.9085    0.1514   -2.1429 H   0  0  0  0  0  0  0  0  0  0  0  0
    7.5073   -0.1686   -2.8218 H   0  0  0  0  0  0  0  0  0  0  0  0
    6.5630   -2.3124   -2.0324 H   0  0  0  0  0  0  0  0  0  0  0  0
    7.9783   -1.8728   -1.1083 H   0  0  0  0  0  0  0  0  0  0  0  0
    4.1467   -0.2625    1.5187 H   0  0  0  0  0  0  0  0  0  0  0  0
    4.4470   -1.9530    1.9398 H   0  0  0  0  0  0  0  0  0  0  0  0
    2.0002   -0.9995    1.9251 H   0  0  0  0  0  0  0  0  0  0  0  0
    2.3122   -2.6336    1.3512 H   0  0  0  0  0  0  0  0  0  0  0  0
    1.9508    0.9501    0.3261 H   0  0  0  0  0  0  0  0  0  0  0  0
    2.6532    0.6658   -1.2695 H   0  0  0  0  0  0  0  0  0  0  0  0
   -2.6421   -1.3224   -0.1884 H   0  0  0  0  0  0  0  0  0  0  0  0
   -3.6490   -2.0358   -1.4503 H   0  0  0  0  0  0  0  0  0  0  0  0
   -5.0290   -3.1968    0.1191 H   0  0  0  0  0  0  0  0  0  0  0  0
   -3.3647   -3.4088    0.6688 H   0  0  0  0  0  0  0  0  0  0  0  0
  1  2  1  0
  2  3  1  0
  3  4  1  0
  4  5  2  0
  5  6  1  0
  6  7  2  0
  7  8  1  0
  8  9  2  0
  9 10  1  0
 10 11  2  0
 11 12  1  0
 12 13  1  0
 13 14  1  0
 14 15  1  0
 14 16  1  0
 16 17  1  0
 17 18  1  0
 18 19  1  0
 19 20  2  0
 19 21  1  0
 21 22  1  0
 22 23  1  0
 23 24  1  0
 24 25  1  0
 25 26  1  0
 26 27  1  0
 27 28  1  0
 28 29  1  0
 29 30  1  0
 30 31  1  0
 31 32  1  0
 26 33  1  0
 33 34  1  0
 23 35  1  0
  5 36  1  0
 36 37  1  0
 37  2  1  0
 11  6  1  0
 18 12  1  0
 35 21  1  0
 34 23  1  0
 32 27  1  0
  1 38  1  0
  1 39  1  0
  1 40  1  0
  3 41  1  0
  3 42  1  0
  4 43  1  0
  7 44  1  0
  8 45  1  0
  9 46  1  0
 10 47  1  0
 12 48  1  1
 13 49  1  0
 13 50  1  0
 15 51  1  0
 15 52  1  0
 15 53  1  0
 16 54  1  0
 16 55  1  0
 17 56  1  0
 17 57  1  0
 21 58  1  0
 22 59  1  0
 22 60  1  0
 24 61  1  0
 24 62  1  0
 25 63  1  0
 25 64  1  0
 27 65  1  0
 28 66  1  0
 28 67  1  0
 29 68  1  0
 29 69  1  0
 31 70  1  0
 31 71  1  0
 32 72  1  0
 32 73  1  0
 33 74  1  0
 33 75  1  0
 34 76  1  0
 34 77  1  0
 35 78  1  0
 35 79  1  0
 36 80  1  0
 36 81  1  0
 37 82  1  0
 37 83  1  0
M  END
$$$$

     RDKit          3D

 83 88  0  0  0  0  0  0  0  0999 V2000
   -5.5916    2.8765    1.5183 C   0  0  0  0  0  0  0  0  0  0  0  0
   -6.6013    1.8942    1.9159 N   0  0  0  0  0  0  0  0  0  0  0  0
   -7.0626    1.0971    0.7698 C   0  0  0  0  0  0  0  0  0  0  0  0
   -6.1728   -0.0532    0.3866 C   0  0  0  0  0  0  0  0  0  0  0  0
   -5.1887   -0.5128    1.1807 C   0  0  0  0  0  0  0  0  0  0  0  0
   -4.3486   -1.6474    0.7595 C   0  0  0  0  0  0  0  0  0  0  0  0
   -4.6360   -2.8945    1.3450 C   0  0  0  0  0  0  0  0  0  0  0  0
   -3.9463   -4.0430    0.9651 C   0  0  0  0  0  0  0  0  0  0  0  0
   -2.9721   -3.9624   -0.0198 C   0  0  0  0  0  0  0  0  0  0  0  0
   -2.6761   -2.7317   -0.6099 C   0  0  0  0  0  0  0  0  0  0  0  0
   -3.3317   -1.5466   -0.2212 C   0  0  0  0  0  0  0  0  0  0  0  0
   -2.9745   -0.2085   -0.8859 C   0  0  2  0  0  0  0  0  0  0  0  0
   -3.5361   -0.1277   -2.3388 C   0  0  0  0  0  0  0  0  0  0  0  0
   -2.6575   -0.7182   -3.3740 N   0  0  0  0  0  0  0  0  0  0  0  0
   -3.2482   -0.5564   -4.7010 C   0  0  0  0  0  0  0  0  0  0  0  0
   -1.3426   -0.0661   -3.3019 C   0  0  0  0  0  0  0  0  0  0  0  0
   -0.6807   -0.2595   -1.9272 C   0  0  0  0  0  0  0  0  0  0  0  0
   -1.5251    0.1338   -0.7965 N   0  0  0  0  0  0  0  0  0  0  0  0
   -1.0585    0.6538    0.4195 C   0  0  0  0  0  0  0  0  0  0  0  0
   -1.8777    1.0256    1.2788 O   0  0  0  0  0  0  0  0  0  0  0  0
    0.4350    0.7999    0.7460 C   0  0  0  0  0  0  0  0  0  0  0  0
    1.4934   -0.2803    0.4545 C   0  0  0  0  0  0  0  0  0  0  0  0
    2.5268    0.8534    0.1537 C   0  0  0  0  0  0  0  0  0  0  0  0
    3.3191    0.6846   -1.1507 C   0  0  0  0  0  0  0  0  0  0  0  0
    4.7315    0.1831   -0.8456 C   0  0  0  0  0  0  0  0  0  0  0  0
    5.4874    1.1830   -0.0810 N   0  0  0  0  0  0  0  0  0  0  0  0
    6.7969    0.7406    0.4373 C   0  0  0  0  0  0  0  0  0  0  0  0
    7.7640    0.2668   -0.6676 C   0  0  0  0  0  0  0  0  0  0  0  0
    7.9478   -1.2416   -0.6333 C   0  0  0  0  0  0  0  0  0  0  0  0
    8.4754   -1.7046    0.6103 O   0  0  0  0  0  0  0  0  0  0  0  0
    8.0716   -0.9606    1.7600 C   0  0  0  0  0  0  0  0  0  0  0  0
    6.7194   -0.2857    1.5842 C   0  0  0  0  0  0  0  0  0  0  0  0
    4.6780    1.9246    0.8990 C   0  0  0  0  0  0  0  0  0  0  0  0
    3.4377    1.1582    1.3575 C   0  0  0  0  0  0  0  0  0  0  0  0
    1.3136    1.8236   -0.0002 C   0  0  0  0  0  0  0  0  0  0  0  0
   -4.9602    0.0679    2.5537 C   0  0  0  0  0  0  0  0  0  0  0  0
   -6.1026    1.0083    2.9828 C   0  0  0  0  0  0  0  0  0  0  0  0
   -4.7035    2.4300    1.0592 H   0  0  0  0  0  0  0  0  0  0  0  0
   -5.2696    3.4657    2.3842 H   0  0  0  0  0  0  0  0  0  0  0  0
   -6.0189    3.5878    0.8025 H   0  0  0  0  0  0  0  0  0  0  0  0
   -7.2127    1.7447   -0.1030 H   0  0  0  0  0  0  0  0  0  0  0  0
   -8.0530    0.6889    1.0077 H   0  0  0  0  0  0  0  0  0  0  0  0
   -6.3729   -0.5192   -0.5741 H   0  0  0  0  0  0  0  0  0  0  0  0
   -5.4192   -2.9772    2.0959 H   0  0  0  0  0  0  0  0  0  0  0  0
   -4.1836   -4.9983    1.4244 H   0  0  0  0  0  0  0  0  0  0  0  0
   -2.4454   -4.8574   -0.3400 H   0  0  0  0  0  0  0  0  0  0  0  0
   -1.9346   -2.7180   -1.4015 H   0  0  0  0  0  0  0  0  0  0  0  0
   -3.4885    0.5895   -0.3406 H   0  0  0  0  0  0  0  0  0  0  0  0
   -4.5234   -0.6050   -2.3787 H   0  0  0  0  0  0  0  0  0  0  0  0
   -3.6919    0.9352   -2.5744 H   0  0  0  0  0  0  0  0  0  0  0  0
   -4.2179   -1.0637   -4.7534 H   0  0  0  0  0  0  0  0  0  0  0  0
   -2.6103   -1.0179   -5.4628 H   0  0  0  0  0  0  0  0  0  0  0  0
   -3.3949    0.4968   -4.9669 H   0  0  0  0  0  0  0  0  0  0  0  0
   -1.4338    1.0088   -3.5088 H   0  0  0  0  0  0  0  0  0  0  0  0
   -0.6750   -0.4880   -4.0631 H   0  0  0  0  0  0  0  0  0  0  0  0
   -0.4020   -1.3081   -1.7918 H   0  0  0  0  0  0  0  0  0  0  0  0
    0.2430    0.3151   -1.9261 H   0  0  0  0  0  0  0  0  0  0  0  0
    0.4938    1.0281    1.8275 H   0  0  0  0  0  0  0  0  0  0  0  0
    1.2917   -0.9496   -0.3835 H   0  0  0  0  0  0  0  0  0  0  0  0
    1.7289   -0.9195    1.3131 H   0  0  0  0  0  0  0  0  0  0  0  0
    3.3863    1.6434   -1.6822 H   0  0  0  0  0  0  0  0  0  0  0  0
    2.8162   -0.0103   -1.8329 H   0  0  0  0  0  0  0  0  0  0  0  0
    4.6575   -0.7699   -0.3107 H   0  0  0  0  0  0  0  0  0  0  0  0
    5.2360   -0.0137   -1.7974 H   0  0  0  0  0  0  0  0  0  0  0  0
    7.2729    1.6435    0.8478 H   0  0  0  0  0  0  0  0  0  0  0  0
    7.4482    0.6002   -1.6623 H   0  0  0  0  0  0  0  0  0  0  0  0
    8.7406    0.7376   -0.4897 H   0  0  0  0  0  0  0  0  0  0  0  0
    8.6438   -1.5535   -1.4187 H   0  0  0  0  0  0  0  0  0  0  0  0
    7.0018   -1.7612   -0.8208 H   0  0  0  0  0  0  0  0  0  0  0  0
    8.8499   -0.2206    1.9791 H   0  0  0  0  0  0  0  0  0  0  0  0
    8.0410   -1.6553    2.6056 H   0  0  0  0  0  0  0  0  0  0  0  0
    6.4212    0.2060    2.5169 H   0  0  0  0  0  0  0  0  0  0  0  0
    5.9737   -1.0595    1.3731 H   0  0  0  0  0  0  0  0  0  0  0  0
    5.2679    2.2247    1.7732 H   0  0  0  0  0  0  0  0  0  0  0  0
    4.3602    2.8615    0.4235 H   0  0  0  0  0  0  0  0  0  0  0  0
    2.9044    1.7382    2.1198 H   0  0  0  0  0  0  0  0  0  0  0  0
    3.7509    0.2251    1.8427 H   0  0  0  0  0  0  0  0  0  0  0  0
    1.4166    2.7904    0.5049 H   0  0  0  0  0  0  0  0  0  0  0  0
    1.0119    2.0342   -1.0308 H   0  0  0  0  0  0  0  0  0  0  0  0
   -4.8709   -0.7282    3.3024 H   0  0  0  0  0  0  0  0  0  0  0  0
   -4.0152    0.6199    2.5598 H   0  0  0  0  0  0  0  0  0  0  0  0
   -5.7831    1.6024    3.8482 H   0  0  0  0  0  0  0  0  0  0  0  0
   -6.9445    0.4020    3.3446 H   0  0  0  0  0  0  0  0  0  0  0  0
  1  2  1  0
  2  3  1  0
  3  4  1  0
  4  5  2  0
  5  6  1  0
  6  7  2  0
  7  8  1  0
  8  9  2  0
  9 10  1  0
 10 11  2  0
 11 12  1  0
 12 13  1  0
 13 14  1  0
 14 15  1  0
 14 16  1  0
 16 17  1  0
 17 18  1  0
 18 19  1  0
 19 20  2  0
 19 21  1  0
 21 22  1  0
 22 23  1  0
 23 24  1  0
 24 25  1  0
 25 26  1  0
 26 27  1  0
 27 28  1  0
 28 29  1  0
 29 30  1  0
 30 31  1  0
 31 32  1  0
 26 33  1  0
 33 34  1  0
 23 35  1  0
  5 36  1  0
 36 37  1  0
 37  2  1  0
 11  6  1  0
 18 12  1  0
 35 21  1  0
 34 23  1  0
 32 27  1  0
  1 38  1  0
  1 39  1  0
  1 40  1  0
  3 41  1  0
  3 42  1  0
  4 43  1  0
  7 44  1  0
  8 45  1  0
  9 46  1  0
 10 47  1  0
 12 48  1  1
 13 49  1  0
 13 50  1  0
 15 51  1  0
 15 52  1  0
 15 53  1  0
 16 54  1  0
 16 55  1  0
 17 56  1  0
 17 57  1  0
 21 58  1  0
 22 59  1  0
 22 60  1  0
 24 61  1  0
 24 62  1  0
 25 63  1  0
 25 64  1  0
 27 65  1  0
 28 66  1  0
 28 67  1  0
 29 68  1  0
 29 69  1  0
 31 70  1  0
 31 71  1  0
 32 72  1  0
 32 73  1  0
 33 74  1  0
 33 75  1  0
 34 76  1  0
 34 77  1  0
 35 78  1  0
 35 79  1  0
 36 80  1  0
 36 81  1  0
 37 82  1  0
 37 83  1  0
M  END
$$$$

     RDKit          3D

 83 88  0  0  0  0  0  0  0  0999 V2000
   -8.4515    2.1624    0.3177 C   0  0  0  0  0  0  0  0  0  0  0  0
   -7.2433    2.6012   -0.3798 N   0  0  0  0  0  0  0  0  0  0  0  0
   -6.0904    2.6671    0.5325 C   0  0  0  0  0  0  0  0  0  0  0  0
   -5.3750    1.3641    0.7574 C   0  0  0  0  0  0  0  0  0  0  0  0
   -5.5497    0.2814   -0.0215 C   0  0  0  0  0  0  0  0  0  0  0  0
   -4.8417   -0.9815    0.2617 C   0  0  0  0  0  0  0  0  0  0  0  0
   -5.6332   -2.0562    0.7095 C   0  0  0  0  0  0  0  0  0  0  0  0
   -5.0634   -3.2827    1.0423 C   0  0  0  0  0  0  0  0  0  0  0  0
   -3.6902   -3.4506    0.9411 C   0  0  0  0  0  0  0  0  0  0  0  0
   -2.8900   -2.3960    0.4977 C   0  0  0  0  0  0  0  0  0  0  0  0
   -3.4392   -1.1466    0.1365 C   0  0  0  0  0  0  0  0  0  0  0  0
   -2.5356   -0.0206   -0.3920 C   0  0  2  0  0  0  0  0  0  0  0  0
   -2.7055    0.2206   -1.9261 C   0  0  0  0  0  0  0  0  0  0  0  0
   -2.0275   -0.7127   -2.8512 N   0  0  0  0  0  0  0  0  0  0  0  0
   -2.9495   -1.7006   -3.4052 C   0  0  0  0  0  0  0  0  0  0  0  0
   -0.8651   -1.3643   -2.2303 C   0  0  0  0  0  0  0  0  0  0  0  0
   -0.1969   -0.5178   -1.1318 C   0  0  0  0  0  0  0  0  0  0  0  0
   -1.1017   -0.1864   -0.0267 N   0  0  0  0  0  0  0  0  0  0  0  0
   -0.7099    0.2269    1.2550 C   0  0  0  0  0  0  0  0  0  0  0  0
   -1.5646    0.6848    2.0348 O   0  0  0  0  0  0  0  0  0  0  0  0
    0.7411    0.1186    1.7479 C   0  0  0  0  0  0  0  0  0  0  0  0
    1.4639   -1.2433    1.8085 C   0  0  0  0  0  0  0  0  0  0  0  0
    2.8026   -0.5134    1.4860 C   0  0  0  0  0  0  0  0  0  0  0  0
    3.6429   -1.2136    0.4167 C   0  0  0  0  0  0  0  0  0  0  0  0
    4.8912   -0.3831    0.0999 C   0  0  0  0  0  0  0  0  0  0  0  0
    5.6904   -0.1608    1.3114 N   0  0  0  0  0  0  0  0  0  0  0  0
    7.0088    0.4736    1.0870 C   0  0  0  0  0  0  0  0  0  0  0  0
    6.9741    1.9161    0.5441 C   0  0  0  0  0  0  0  0  0  0  0  0
    8.2869    2.2994   -0.1352 C   0  0  0  0  0  0  0  0  0  0  0  0
    9.3788    1.6200    0.4712 O   0  0  0  0  0  0  0  0  0  0  0  0
    9.3550    0.2122    0.2244 C   0  0  0  0  0  0  0  0  0  0  0  0
    7.9451   -0.3816    0.2246 C   0  0  0  0  0  0  0  0  0  0  0  0
    4.9131    0.5499    2.3404 C   0  0  0  0  0  0  0  0  0  0  0  0
    3.6584   -0.2365    2.7288 C   0  0  0  0  0  0  0  0  0  0  0  0
    1.9485    0.6944    0.9828 C   0  0  0  0  0  0  0  0  0  0  0  0
   -6.5200    0.3099   -1.1761 C   0  0  0  0  0  0  0  0  0  0  0  0
   -6.9355    1.7478   -1.5390 C   0  0  0  0  0  0  0  0  0  0  0  0
   -8.7191    2.8815    1.1002 H   0  0  0  0  0  0  0  0  0  0  0  0
   -8.3497    1.1774    0.7854 H   0  0  0  0  0  0  0  0  0  0  0  0
   -9.3014    2.1276   -0.3731 H   0  0  0  0  0  0  0  0  0  0  0  0
   -6.3961    3.0857    1.4995 H   0  0  0  0  0  0  0  0  0  0  0  0
   -5.3641    3.3788    0.1197 H   0  0  0  0  0  0  0  0  0  0  0  0
   -4.6836    1.3358    1.5984 H   0  0  0  0  0  0  0  0  0  0  0  0
   -6.7084   -1.9335    0.8238 H   0  0  0  0  0  0  0  0  0  0  0  0
   -5.6901   -4.0969    1.3955 H   0  0  0  0  0  0  0  0  0  0  0  0
   -3.2355   -4.3991    1.2147 H   0  0  0  0  0  0  0  0  0  0  0  0
   -1.8181   -2.5654    0.4461 H   0  0  0  0  0  0  0  0  0  0  0  0
   -2.8487    0.9086    0.0949 H   0  0  0  0  0  0  0  0  0  0  0  0
   -3.7580    0.3420   -2.2007 H   0  0  0  0  0  0  0  0  0  0  0  0
   -2.2569    1.2028   -2.1338 H   0  0  0  0  0  0  0  0  0  0  0  0
   -3.3994   -2.3347   -2.6342 H   0  0  0  0  0  0  0  0  0  0  0  0
   -3.7565   -1.2060   -3.9571 H   0  0  0  0  0  0  0  0  0  0  0  0
   -2.4316   -2.3471   -4.1226 H   0  0  0  0  0  0  0  0  0  0  0  0
   -0.1272   -1.5758   -3.0131 H   0  0  0  0  0  0  0  0  0  0  0  0
   -1.1445   -2.3313   -1.7952 H   0  0  0  0  0  0  0  0  0  0  0  0
    0.6706   -1.0584   -0.7604 H   0  0  0  0  0  0  0  0  0  0  0  0
    0.1559    0.4296   -1.5562 H   0  0  0  0  0  0  0  0  0  0  0  0
    0.7567    0.5536    2.7653 H   0  0  0  0  0  0  0  0  0  0  0  0
    1.1439   -1.9791    1.0645 H   0  0  0  0  0  0  0  0  0  0  0  0
    1.4197   -1.7367    2.7859 H   0  0  0  0  0  0  0  0  0  0  0  0
    3.9422   -2.2098    0.7679 H   0  0  0  0  0  0  0  0  0  0  0  0
    3.0658   -1.3645   -0.5030 H   0  0  0  0  0  0  0  0  0  0  0  0
    5.4644   -0.9402   -0.6477 H   0  0  0  0  0  0  0  0  0  0  0  0
    4.5896    0.5660   -0.3577 H   0  0  0  0  0  0  0  0  0  0  0  0
    7.4923    0.5171    2.0748 H   0  0  0  0  0  0  0  0  0  0  0  0
    6.1595    2.0851   -0.1673 H   0  0  0  0  0  0  0  0  0  0  0  0
    6.7916    2.5982    1.3844 H   0  0  0  0  0  0  0  0  0  0  0  0
    8.2621    2.0660   -1.2067 H   0  0  0  0  0  0  0  0  0  0  0  0
    8.4549    3.3773   -0.0435 H   0  0  0  0  0  0  0  0  0  0  0  0
    9.9564   -0.2560    1.0109 H   0  0  0  0  0  0  0  0  0  0  0  0
    9.8565    0.0091   -0.7283 H   0  0  0  0  0  0  0  0  0  0  0  0
    7.9834   -1.4216    0.5696 H   0  0  0  0  0  0  0  0  0  0  0  0
    7.5856   -0.4083   -0.8115 H   0  0  0  0  0  0  0  0  0  0  0  0
    4.6297    1.5505    1.9918 H   0  0  0  0  0  0  0  0  0  0  0  0
    5.5189    0.6793    3.2455 H   0  0  0  0  0  0  0  0  0  0  0  0
    3.0954    0.3273    3.4819 H   0  0  0  0  0  0  0  0  0  0  0  0
    3.9517   -1.1849    3.1977 H   0  0  0  0  0  0  0  0  0  0  0  0
    2.2709    1.6814    1.3322 H   0  0  0  0  0  0  0  0  0  0  0  0
    1.8505    0.7586   -0.1027 H   0  0  0  0  0  0  0  0  0  0  0  0
   -6.0749   -0.1586   -2.0618 H   0  0  0  0  0  0  0  0  0  0  0  0
   -7.4117   -0.2745   -0.9184 H   0  0  0  0  0  0  0  0  0  0  0  0
   -6.1231    2.2207   -2.1079 H   0  0  0  0  0  0  0  0  0  0  0  0
   -7.7910    1.7202   -2.2253 H   0  0  0  0  0  0  0  0  0  0  0  0
  1  2  1  0
  2  3  1  0
  3  4  1  0
  4  5  2  0
  5  6  1  0
  6  7  2  0
  7  8  1  0
  8  9  2  0
  9 10  1  0
 10 11  2  0
 11 12  1  0
 12 13  1  0
 13 14  1  0
 14 15  1  0
 14 16  1  0
 16 17  1  0
 17 18  1  0
 18 19  1  0
 19 20  2  0
 19 21  1  0
 21 22  1  0
 22 23  1  0
 23 24  1  0
 24 25  1  0
 25 26  1  0
 26 27  1  0
 27 28  1  0
 28 29  1  0
 29 30  1  0
 30 31  1  0
 31 32  1  0
 26 33  1  0
 33 34  1  0
 23 35  1  0
  5 36  1  0
 36 37  1  0
 37  2  1  0
 11  6  1  0
 18 12  1  0
 35 21  1  0
 34 23  1  0
 32 27  1  0
  1 38  1  0
  1 39  1  0
  1 40  1  0
  3 41  1  0
  3 42  1  0
  4 43  1  0
  7 44  1  0
  8 45  1  0
  9 46  1  0
 10 47  1  0
 12 48  1  1
 13 49  1  0
 13 50  1  0
 15 51  1  0
 15 52  1  0
 15 53  1  0
 16 54  1  0
 16 55  1  0
 17 56  1  0
 17 57  1  0
 21 58  1  0
 22 59  1  0
 22 60  1  0
 24 61  1  0
 24 62  1  0
 25 63  1  0
 25 64  1  0
 27 65  1  0
 28 66  1  0
 28 67  1  0
 29 68  1  0
 29 69  1  0
 31 70  1  0
 31 71  1  0
 32 72  1  0
 32 73  1  0
 33 74  1  0
 33 75  1  0
 34 76  1  0
 34 77  1  0
 35 78  1  0
 35 79  1  0
 36 80  1  0
 36 81  1  0
 37 82  1  0
 37 83  1  0
M  END
$$$$
