
     RDKit          3D

 68 74  0  0  0  0  0  0  0  0999 V2000
   -1.6111   -2.8678   -1.1101 O   0  0  0  0  0  0  0  0  0  0  0  0
   -1.3094   -1.8736   -0.4376 C   0  0  0  0  0  0  0  0  0  0  0  0
   -2.3825   -0.9490    0.2015 C   0  0  0  0  0  0  0  0  0  0  0  0
   -2.5295    0.4899   -0.3642 C   0  0  0  0  0  0  0  0  0  0  0  0
   -4.0698    0.3751   -0.1748 C   0  0  0  0  0  0  0  0  0  0  0  0
   -4.5759    0.9208    1.1739 C   0  0  0  0  0  0  0  0  0  0  0  0
   -6.0715    1.2657    1.1254 C   0  0  0  0  0  0  0  0  0  0  0  0
   -6.7935    0.3765    0.2198 N   0  0  0  0  0  0  0  0  0  0  0  0
   -8.2383    0.3176    0.4893 C   0  0  0  0  0  0  0  0  0  0  0  0
   -9.1631    1.4279    0.0719 C   0  0  0  0  0  0  0  0  0  0  0  0
   -9.2759    0.0740   -0.5710 C   0  0  0  0  0  0  0  0  0  0  0  0
   -6.3664    0.5263   -1.1761 C   0  0  0  0  0  0  0  0  0  0  0  0
   -4.8932    0.9352   -1.3317 C   0  0  0  0  0  0  0  0  0  0  0  0
   -3.8618   -1.1705   -0.2243 C   0  0  0  0  0  0  0  0  0  0  0  0
    0.0328   -1.5381   -0.2294 N   0  0  0  0  0  0  0  0  0  0  0  0
    0.4803   -0.4318    0.6170 C   0  0  0  0  0  0  0  0  0  0  0  0
    1.8809   -0.6821    1.1655 C   0  0  0  0  0  0  0  0  0  0  0  0
    2.8913   -0.8398    0.0194 C   0  0  0  0  0  0  0  0  0  0  0  0
    2.2785   -1.4770   -1.2436 C   0  0  0  0  0  0  0  0  0  0  0  0
    1.0694   -2.3354   -0.8869 C   0  0  0  0  0  0  0  0  0  0  0  0
    4.2304   -1.4892    0.4913 C   0  0  0  0  0  0  0  0  0  0  0  0
    4.9955   -0.4600   -0.3839 C   0  0  0  0  0  0  0  0  0  0  0  0
    6.3818    0.1062    0.1314 C   0  0  0  0  0  0  0  0  0  0  0  0
    6.5592    0.6598    1.4108 C   0  0  0  0  0  0  0  0  0  0  0  0
    7.6955    1.1720    1.9506 N   0  0  0  0  0  0  0  0  0  0  0  0
    8.7374    1.1097    1.1060 C   0  0  0  0  0  0  0  0  0  0  0  0
    9.9986    1.5534    1.3934 N   0  0  0  0  0  0  0  0  0  0  0  0
   10.8221    1.3419    0.3161 C   0  0  0  0  0  0  0  0  0  0  0  0
   10.0702    0.7508   -0.6787 C   0  0  0  0  0  0  0  0  0  0  0  0
    8.7465    0.6003   -0.1844 C   0  0  0  0  0  0  0  0  0  0  0  0
    7.5352    0.0874   -0.6783 C   0  0  0  0  0  0  0  0  0  0  0  0
    3.7343    0.4401   -0.2880 C   0  0  0  0  0  0  0  0  0  0  0  0
   -2.3051   -0.9615    1.2985 H   0  0  0  0  0  0  0  0  0  0  0  0
   -2.2065    0.5849   -1.4086 H   0  0  0  0  0  0  0  0  0  0  0  0
   -2.0338    1.2743    0.2156 H   0  0  0  0  0  0  0  0  0  0  0  0
   -4.3929    0.1928    1.9738 H   0  0  0  0  0  0  0  0  0  0  0  0
   -4.0273    1.8312    1.4453 H   0  0  0  0  0  0  0  0  0  0  0  0
   -6.4663    1.1966    2.1470 H   0  0  0  0  0  0  0  0  0  0  0  0
   -6.2082    2.3100    0.8144 H   0  0  0  0  0  0  0  0  0  0  0  0
   -8.4593   -0.1434    1.4528 H   0  0  0  0  0  0  0  0  0  0  0  0
   -8.7712    2.2437   -0.5224 H   0  0  0  0  0  0  0  0  0  0  0  0
   -9.9378    1.7252    0.7693 H   0  0  0  0  0  0  0  0  0  0  0  0
   -8.9807   -0.0253   -1.6071 H   0  0  0  0  0  0  0  0  0  0  0  0
  -10.1256   -0.5453   -0.3052 H   0  0  0  0  0  0  0  0  0  0  0  0
   -6.9674    1.2700   -1.7122 H   0  0  0  0  0  0  0  0  0  0  0  0
   -6.5189   -0.4351   -1.6814 H   0  0  0  0  0  0  0  0  0  0  0  0
   -4.5184    0.5854   -2.3011 H   0  0  0  0  0  0  0  0  0  0  0  0
   -4.8132    2.0301   -1.3403 H   0  0  0  0  0  0  0  0  0  0  0  0
   -3.9777   -1.6067   -1.2244 H   0  0  0  0  0  0  0  0  0  0  0  0
   -4.4627   -1.7610    0.4741 H   0  0  0  0  0  0  0  0  0  0  0  0
   -0.2152   -0.2895    1.4478 H   0  0  0  0  0  0  0  0  0  0  0  0
    0.4646    0.4747    0.0012 H   0  0  0  0  0  0  0  0  0  0  0  0
    1.8632   -1.5991    1.7694 H   0  0  0  0  0  0  0  0  0  0  0  0
    2.1704    0.1310    1.8408 H   0  0  0  0  0  0  0  0  0  0  0  0
    1.9508   -0.6880   -1.9331 H   0  0  0  0  0  0  0  0  0  0  0  0
    3.0161   -2.0820   -1.7830 H   0  0  0  0  0  0  0  0  0  0  0  0
    1.3513   -3.1377   -0.1949 H   0  0  0  0  0  0  0  0  0  0  0  0
    0.6706   -2.8037   -1.7929 H   0  0  0  0  0  0  0  0  0  0  0  0
    4.3783   -2.5379    0.2147 H   0  0  0  0  0  0  0  0  0  0  0  0
    4.4197   -1.3959    1.5678 H   0  0  0  0  0  0  0  0  0  0  0  0
    5.1056   -0.8453   -1.4106 H   0  0  0  0  0  0  0  0  0  0  0  0
    5.7099    0.7066    2.0913 H   0  0  0  0  0  0  0  0  0  0  0  0
   10.2558    1.9700    2.2759 H   0  0  0  0  0  0  0  0  0  0  0  0
   11.8645    1.6285    0.3515 H   0  0  0  0  0  0  0  0  0  0  0  0
   10.4343    0.4588   -1.6550 H   0  0  0  0  0  0  0  0  0  0  0  0
    7.4918   -0.3225   -1.6833 H   0  0  0  0  0  0  0  0  0  0  0  0
    3.4800    0.9787   -1.2064 H   0  0  0  0  0  0  0  0  0  0  0  0
    3.7634    1.1712    0.5289 H   0  0  0  0  0  0  0  0  0  0  0  0
  1  2  2  0
  2  3  1  0
  3  4  1  0
  4  5  1  0
  5  6  1  0
  6  7  1  0
  7  8  1  0
  8  9  1  0
  9 10  1  0
 10 11  1  0
  8 12  1  0
 12 13  1  0
  5 14  1  0
  2 15  1  0
 15 16  1  0
 16 17  1  0
 17 18  1  0
 18 19  1  0
 19 20  1  0
 18 21  1  0
 21 22  1  0
 22 23  1  0
 23 24  2  0
 24 25  1  0
 25 26  2  0
 26 27  1  0
 27 28  1  0
 28 29  2  0
 29 30  1  0
 30 31  2  0
 22 32  1  0
 14  3  1  0
 20 15  1  0
 31 23  1  0
 13  5  1  0
 32 18  1  0
 11  9  1  0
 30 26  1  0
  3 33  1  0
  4 34  1  0
  4 35  1  0
  6 36  1  0
  6 37  1  0
  7 38  1  0
  7 39  1  0
  9 40  1  0
 10 41  1  0
 10 42  1  0
 11 43  1  0
 11 44  1  0
 12 45  1  0
 12 46  1  0
 13 47  1  0
 13 48  1  0
 14 49  1  0
 14 50  1  0
 16 51  1  0
 16 52  1  0
 17 53  1  0
 17 54  1  0
 19 55  1  0
 19 56  1  0
 20 57  1  0
 20 58  1  0
 21 59  1  0
 21 60  1  0
 22 61  1  0
 24 62  1  0
 27 63  1  0
 28 64  1  0
 29 65  1  0
 31 66  1  0
 32 67  1  0
 32 68  1  0
M  END
$$$$

     RDKit          3D

 68 74  0  0  0  0  0  0  0  0999 V2000
   -1.3775    2.8374   -0.5148 O   0  0  0  0  0  0  0  0  0  0  0  0
   -1.1522    1.6267   -0.3917 C   0  0  0  0  0  0  0  0  0  0  0  0
   -2.2933    0.5820   -0.2253 C   0  0  0  0  0  0  0  0  0  0  0  0
   -2.9004   -0.0152   -1.5225 C   0  0  0  0  0  0  0  0  0  0  0  0
   -4.3044    0.0383   -0.8565 C   0  0  0  0  0  0  0  0  0  0  0  0
   -5.4058    0.5262   -1.7977 C   0  0  0  0  0  0  0  0  0  0  0  0
   -6.7221    0.6586   -1.0320 C   0  0  0  0  0  0  0  0  0  0  0  0
   -7.1115   -0.6122   -0.3992 N   0  0  0  0  0  0  0  0  0  0  0  0
   -8.4897   -0.5506    0.1299 C   0  0  0  0  0  0  0  0  0  0  0  0
   -8.9368   -1.1909    1.4157 C   0  0  0  0  0  0  0  0  0  0  0  0
   -8.8333    0.3034    1.3220 C   0  0  0  0  0  0  0  0  0  0  0  0
   -6.0762   -1.1048    0.5159 C   0  0  0  0  0  0  0  0  0  0  0  0
   -4.7277   -1.2762   -0.1916 C   0  0  0  0  0  0  0  0  0  0  0  0
   -3.7158    1.1188    0.0994 C   0  0  0  0  0  0  0  0  0  0  0  0
    0.1612    1.1467   -0.3807 N   0  0  0  0  0  0  0  0  0  0  0  0
    0.5157   -0.2721   -0.3390 C   0  0  0  0  0  0  0  0  0  0  0  0
    1.8615   -0.5318   -1.0090 C   0  0  0  0  0  0  0  0  0  0  0  0
    2.9824    0.2717   -0.3215 C   0  0  0  0  0  0  0  0  0  0  0  0
    2.4825    1.5750    0.3208 C   0  0  0  0  0  0  0  0  0  0  0  0
    1.2636    2.1086   -0.4228 C   0  0  0  0  0  0  0  0  0  0  0  0
    4.2547    0.4316   -1.2151 C   0  0  0  0  0  0  0  0  0  0  0  0
    4.8387   -0.8425   -0.5480 C   0  0  0  0  0  0  0  0  0  0  0  0
    6.3971   -0.9199   -0.2769 C   0  0  0  0  0  0  0  0  0  0  0  0
    7.1683   -2.0129   -0.7069 C   0  0  0  0  0  0  0  0  0  0  0  0
    8.5020   -2.2114   -0.5446 N   0  0  0  0  0  0  0  0  0  0  0  0
    9.0938   -1.2021    0.1139 C   0  0  0  0  0  0  0  0  0  0  0  0
   10.4272   -1.1445    0.4121 N   0  0  0  0  0  0  0  0  0  0  0  0
   10.7020    0.0175    1.0886 C   0  0  0  0  0  0  0  0  0  0  0  0
    9.5191    0.7153    1.2244 C   0  0  0  0  0  0  0  0  0  0  0  0
    8.4946   -0.0526    0.6081 C   0  0  0  0  0  0  0  0  0  0  0  0
    7.1111    0.0863    0.4046 C   0  0  0  0  0  0  0  0  0  0  0  0
    3.8834   -0.5615    0.6433 C   0  0  0  0  0  0  0  0  0  0  0  0
   -2.0229   -0.1972    0.5020 H   0  0  0  0  0  0  0  0  0  0  0  0
   -2.5390   -1.0123   -1.7923 H   0  0  0  0  0  0  0  0  0  0  0  0
   -2.7873    0.6358   -2.3984 H   0  0  0  0  0  0  0  0  0  0  0  0
   -5.1443    1.4939   -2.2426 H   0  0  0  0  0  0  0  0  0  0  0  0
   -5.5306   -0.1805   -2.6283 H   0  0  0  0  0  0  0  0  0  0  0  0
   -7.4974    0.9706   -1.7427 H   0  0  0  0  0  0  0  0  0  0  0  0
   -6.6381    1.4507   -0.2768 H   0  0  0  0  0  0  0  0  0  0  0  0
   -9.2331   -0.5640   -0.6682 H   0  0  0  0  0  0  0  0  0  0  0  0
   -9.9281   -1.6307    1.4352 H   0  0  0  0  0  0  0  0  0  0  0  0
   -8.2305   -1.7014    2.0560 H   0  0  0  0  0  0  0  0  0  0  0  0
   -8.0354    0.7910    1.8682 H   0  0  0  0  0  0  0  0  0  0  0  0
   -9.7525    0.8762    1.2809 H   0  0  0  0  0  0  0  0  0  0  0  0
   -5.9633   -0.4299    1.3728 H   0  0  0  0  0  0  0  0  0  0  0  0
   -6.3594   -2.0893    0.9051 H   0  0  0  0  0  0  0  0  0  0  0  0
   -3.9798   -1.6165    0.5341 H   0  0  0  0  0  0  0  0  0  0  0  0
   -4.8119   -2.0654   -0.9503 H   0  0  0  0  0  0  0  0  0  0  0  0
   -4.0059    1.0438    1.1517 H   0  0  0  0  0  0  0  0  0  0  0  0
   -3.8946    2.1502   -0.2279 H   0  0  0  0  0  0  0  0  0  0  0  0
   -0.2555   -0.8657   -0.8362 H   0  0  0  0  0  0  0  0  0  0  0  0
    0.5437   -0.5687    0.7159 H   0  0  0  0  0  0  0  0  0  0  0  0
    1.7874   -0.2327   -2.0628 H   0  0  0  0  0  0  0  0  0  0  0  0
    2.0774   -1.6062   -1.0009 H   0  0  0  0  0  0  0  0  0  0  0  0
    2.1995    1.3857    1.3649 H   0  0  0  0  0  0  0  0  0  0  0  0
    3.2715    2.3351    0.3429 H   0  0  0  0  0  0  0  0  0  0  0  0
    0.9495    3.0607    0.0177 H   0  0  0  0  0  0  0  0  0  0  0  0
    1.4979    2.2901   -1.4783 H   0  0  0  0  0  0  0  0  0  0  0  0
    4.8319    1.3444   -1.0246 H   0  0  0  0  0  0  0  0  0  0  0  0
    4.0990    0.3568   -2.2961 H   0  0  0  0  0  0  0  0  0  0  0  0
    4.5066   -1.7396   -1.0952 H   0  0  0  0  0  0  0  0  0  0  0  0
    6.6794   -2.8272   -1.2412 H   0  0  0  0  0  0  0  0  0  0  0  0
   11.0870   -1.8650    0.1588 H   0  0  0  0  0  0  0  0  0  0  0  0
   11.7089    0.2448    1.4120 H   0  0  0  0  0  0  0  0  0  0  0  0
    9.4053    1.6737    1.7137 H   0  0  0  0  0  0  0  0  0  0  0  0
    6.5994    0.9699    0.7741 H   0  0  0  0  0  0  0  0  0  0  0  0
    4.3342    0.0237    1.4544 H   0  0  0  0  0  0  0  0  0  0  0  0
    3.4187   -1.4476    1.0870 H   0  0  0  0  0  0  0  0  0  0  0  0
  1  2  2  0
  2  3  1  0
  3  4  1  0
  4  5  1  0
  5  6  1  0
  6  7  1  0
  7  8  1  0
  8  9  1  0
  9 10  1  0
 10 11  1  0
  8 12  1  0
 12 13  1  0
  5 14  1  0
  2 15  1  0
 15 16  1  0
 16 17  1  0
 17 18  1  0
 18 19  1  0
 19 20  1  0
 18 21  1  0
 21 22  1  0
 22 23  1  0
 23 24  2  0
 24 25  1  0
 25 26  2  0
 26 27  1  0
 27 28  1  0
 28 29  2  0
 29 30  1  0
 30 31  2  0
 22 32  1  0
 14  3  1  0
 20 15  1  0
 31 23  1  0
 13  5  1  0
 32 18  1  0
 11  9  1  0
 30 26  1  0
  3 33  1  0
  4 34  1  0
  4 35  1  0
  6 36  1  0
  6 37  1  0
  7 38  1  0
  7 39  1  0
  9 40  1  0
 10 41  1  0
 10 42  1  0
 11 43  1  0
 11 44  1  0
 12 45  1  0
 12 46  1  0
 13 47  1  0
 13 48  1  0
 14 49  1  0
 14 50  1  0
 16 51  1  0
 16 52  1  0
 17 53  1  0
 17 54  1  0
 19 55  1  0
 19 56  1  0
 20 57  1  0
 20 58  1  0
 21 59  1  0
 21 60  1  0
 22 61  1  0
 24 62  1  0
 27 63  1  0
 28 64  1  0
 29 65  1  0
 31 66  1  0
 32 67  1  0
 32 68  1  0
M  END
$$$$

     RDKit          3D

 68 74  0  0  0  0  0  0  0  0999 V2000
   -1.0676    2.6334   -3.4859 O   0  0  0  0  0  0  0  0  0  0  0  0
   -1.1447    1.7590   -2.6035 C   0  0  0  0  0  0  0  0  0  0  0  0
   -2.5325    1.2229   -2.2190 C   0  0  0  0  0  0  0  0  0  0  0  0
   -3.1576    1.5723   -0.8528 C   0  0  0  0  0  0  0  0  0  0  0  0
   -3.8632    0.1789   -0.8522 C   0  0  0  0  0  0  0  0  0  0  0  0
   -3.7251   -0.6205    0.4526 C   0  0  0  0  0  0  0  0  0  0  0  0
   -5.0129   -0.5118    1.2667 C   0  0  0  0  0  0  0  0  0  0  0  0
   -6.1505   -1.1328    0.5675 N   0  0  0  0  0  0  0  0  0  0  0  0
   -7.4399   -0.6942    1.1258 C   0  0  0  0  0  0  0  0  0  0  0  0
   -7.9339   -1.3105    2.4066 C   0  0  0  0  0  0  0  0  0  0  0  0
   -8.6052   -1.6461    1.1082 C   0  0  0  0  0  0  0  0  0  0  0  0
   -6.0835   -0.9962   -0.8971 C   0  0  0  0  0  0  0  0  0  0  0  0
   -5.3227    0.2518   -1.3421 C   0  0  0  0  0  0  0  0  0  0  0  0
   -2.8358   -0.2623   -1.9426 C   0  0  0  0  0  0  0  0  0  0  0  0
    0.0359    1.2885   -2.0123 N   0  0  0  0  0  0  0  0  0  0  0  0
    1.3042    1.8037   -2.5402 C   0  0  0  0  0  0  0  0  0  0  0  0
    2.4609    0.8461   -2.2731 C   0  0  0  0  0  0  0  0  0  0  0  0
    2.6387    0.6169   -0.7604 C   0  0  0  0  0  0  0  0  0  0  0  0
    1.3282    0.7737    0.0249 C   0  0  0  0  0  0  0  0  0  0  0  0
    0.1320    0.4069   -0.8489 C   0  0  0  0  0  0  0  0  0  0  0  0
    3.8213    1.4050   -0.1146 C   0  0  0  0  0  0  0  0  0  0  0  0
    4.7391    0.1838   -0.3909 C   0  0  0  0  0  0  0  0  0  0  0  0
    5.8712   -0.1782    0.6559 C   0  0  0  0  0  0  0  0  0  0  0  0
    5.6263   -0.3352    2.0306 C   0  0  0  0  0  0  0  0  0  0  0  0
    6.5162   -0.6438    3.0091 N   0  0  0  0  0  0  0  0  0  0  0  0
    7.7627   -0.8040    2.5364 C   0  0  0  0  0  0  0  0  0  0  0  0
    8.8507   -1.1173    3.3033 N   0  0  0  0  0  0  0  0  0  0  0  0
    9.9674   -1.2066    2.5106 C   0  0  0  0  0  0  0  0  0  0  0  0
    9.5833   -0.9446    1.2113 C   0  0  0  0  0  0  0  0  0  0  0  0
    8.1857   -0.6882    1.2202 C   0  0  0  0  0  0  0  0  0  0  0  0
    7.2107   -0.3672    0.2607 C   0  0  0  0  0  0  0  0  0  0  0  0
    3.4486   -0.6782   -0.4297 C   0  0  0  0  0  0  0  0  0  0  0  0
   -3.2279    1.5595   -3.0109 H   0  0  0  0  0  0  0  0  0  0  0  0
   -2.4414    1.7357   -0.0419 H   0  0  0  0  0  0  0  0  0  0  0  0
   -3.8227    2.4429   -0.8695 H   0  0  0  0  0  0  0  0  0  0  0  0
   -2.8761   -0.2648    1.0473 H   0  0  0  0  0  0  0  0  0  0  0  0
   -3.5270   -1.6780    0.2326 H   0  0  0  0  0  0  0  0  0  0  0  0
   -5.2150    0.5474    1.4758 H   0  0  0  0  0  0  0  0  0  0  0  0
   -4.8740   -1.0123    2.2318 H   0  0  0  0  0  0  0  0  0  0  0  0
   -7.6754    0.3581    0.9742 H   0  0  0  0  0  0  0  0  0  0  0  0
   -7.3318   -2.0801    2.8753 H   0  0  0  0  0  0  0  0  0  0  0  0
   -8.4627   -0.6718    3.1035 H   0  0  0  0  0  0  0  0  0  0  0  0
   -8.4521   -2.6392    0.7023 H   0  0  0  0  0  0  0  0  0  0  0  0
   -9.5900   -1.2353    0.9219 H   0  0  0  0  0  0  0  0  0  0  0  0
   -7.0874   -0.9950   -1.3392 H   0  0  0  0  0  0  0  0  0  0  0  0
   -5.5820   -1.8866   -1.2970 H   0  0  0  0  0  0  0  0  0  0  0  0
   -5.3695    0.3467   -2.4332 H   0  0  0  0  0  0  0  0  0  0  0  0
   -5.8200    1.1401   -0.9311 H   0  0  0  0  0  0  0  0  0  0  0  0
   -3.2601   -0.8053   -2.7947 H   0  0  0  0  0  0  0  0  0  0  0  0
   -2.0074   -0.8664   -1.5671 H   0  0  0  0  0  0  0  0  0  0  0  0
    1.2161    1.9751   -3.6187 H   0  0  0  0  0  0  0  0  0  0  0  0
    1.4852    2.7741   -2.0623 H   0  0  0  0  0  0  0  0  0  0  0  0
    3.3779    1.2370   -2.7283 H   0  0  0  0  0  0  0  0  0  0  0  0
    2.2436   -0.1089   -2.7691 H   0  0  0  0  0  0  0  0  0  0  0  0
    1.2160    1.8156    0.3534 H   0  0  0  0  0  0  0  0  0  0  0  0
    1.3333    0.1579    0.9314 H   0  0  0  0  0  0  0  0  0  0  0  0
    0.2365   -0.6174   -1.2241 H   0  0  0  0  0  0  0  0  0  0  0  0
   -0.7721    0.4608   -0.2473 H   0  0  0  0  0  0  0  0  0  0  0  0
    4.1126    2.3309   -0.6205 H   0  0  0  0  0  0  0  0  0  0  0  0
    3.6810    1.6328    0.9493 H   0  0  0  0  0  0  0  0  0  0  0  0
    5.1725    0.2580   -1.4015 H   0  0  0  0  0  0  0  0  0  0  0  0
    4.6128   -0.2035    2.4078 H   0  0  0  0  0  0  0  0  0  0  0  0
    8.8079   -1.2561    4.3020 H   0  0  0  0  0  0  0  0  0  0  0  0
   10.9317   -1.4471    2.9378 H   0  0  0  0  0  0  0  0  0  0  0  0
   10.2377   -0.9383    0.3496 H   0  0  0  0  0  0  0  0  0  0  0  0
    7.4930   -0.2656   -0.7833 H   0  0  0  0  0  0  0  0  0  0  0  0
    3.1890   -1.1437    0.5287 H   0  0  0  0  0  0  0  0  0  0  0  0
    3.4398   -1.4625   -1.1932 H   0  0  0  0  0  0  0  0  0  0  0  0
  1  2  2  0
  2  3  1  0
  3  4  1  0
  4  5  1  0
  5  6  1  0
  6  7  1  0
  7  8  1  0
  8  9  1  0
  9 10  1  0
 10 11  1  0
  8 12  1  0
 12 13  1  0
  5 14  1  0
  2 15  1  0
 15 16  1  0
 16 17  1  0
 17 18  1  0
 18 19  1  0
 19 20  1  0
 18 21  1  0
 21 22  1  0
 22 23  1  0
 23 24  2  0
 24 25  1  0
 25 26  2  0
 26 27  1  0
 27 28  1  0
 28 29  2  0
 29 30  1  0
 30 31  2  0
 22 32  1  0
 14  3  1  0
 20 15  1  0
 31 23  1  0
 13  5  1  0
 32 18  1  0
 11  9  1  0
 30 26  1  0
  3 33  1  0
  4 34  1  0
  4 35  1  0
  6 36  1  0
  6 37  1  0
  7 38  1  0
  7 39  1  0
  9 40  1  0
 10 41  1  0
 10 42  1  0
 11 43  1  0
 11 44  1  0
 12 45  1  0
 12 46  1  0
 13 47  1  0
 13 48  1  0
 14 49  1  0
 14 50  1  0
 16 51  1  0
 16 52  1  0
 17 53  1  0
 17 54  1  0
 19 55  1  0
 19 56  1  0
 20 57  1  0
 20 58  1  0
 21 59  1  0
 21 60  1  0
 22 61  1  0
 24 62  1  0
 27 63  1  0
 28 64  1  0
 29 65  1  0
 31 66  1  0
 32 67  1  0
 32 68  1  0
M  END
$$$$
