
     RDKit          3D

 82 88  0  0  0  0  0  0  0  0999 V2000
    7.1107   -2.6398   -2.8537 C   0  0  0  0  0  0  0  0  0  0  0  0
    7.0111   -1.7162   -1.7276 N   0  0  0  0  0  0  0  0  0  0  0  0
    6.7825   -0.3431   -2.2017 C   0  0  0  0  0  0  0  0  0  0  0  0
    6.4194    0.6206   -1.1077 C   0  0  0  0  0  0  0  0  0  0  0  0
    6.0365    0.2258    0.1211 C   0  0  0  0  0  0  0  0  0  0  0  0
    5.6895    1.2106    1.1707 C   0  0  0  0  0  0  0  0  0  0  0  0
    6.7354    2.0370    1.6287 C   0  0  0  0  0  0  0  0  0  0  0  0
    6.5352    2.9392    2.6697 C   0  0  0  0  0  0  0  0  0  0  0  0
    5.2883    3.0202    3.2723 C   0  0  0  0  0  0  0  0  0  0  0  0
    4.2409    2.2080    2.8263 C   0  0  0  0  0  0  0  0  0  0  0  0
    4.4000    1.2992    1.7635 C   0  0  0  0  0  0  0  0  0  0  0  0
    3.3249    0.5270    1.3125 N   0  0  0  0  0  0  0  0  0  0  0  0
    2.8631    0.7667   -0.0608 C   0  0  0  0  0  0  0  0  0  0  0  0
    1.6021    1.6309   -0.0602 C   0  0  0  0  0  0  0  0  0  0  0  0
    0.5247    0.9849    0.8159 C   0  0  0  0  0  0  0  0  0  0  0  0
    1.0414    0.7998    2.2503 C   0  0  0  0  0  0  0  0  0  0  0  0
    2.3379   -0.0122    2.2497 C   0  0  0  0  0  0  0  0  0  0  0  0
   -0.1901   -0.2495    0.1892 C   0  0  0  0  0  0  0  0  0  0  0  0
   -1.5457    0.3241    0.6788 C   0  0  0  0  0  0  0  0  0  0  0  0
   -2.7691    0.1741   -0.2720 C   0  0  0  0  0  0  0  0  0  0  0  0
   -3.0021    0.9906   -1.1705 O   0  0  0  0  0  0  0  0  0  0  0  0
   -3.6187   -0.9364   -0.0473 N   0  0  0  0  0  0  0  0  0  0  0  0
   -2.9673   -2.1959    0.3339 C   0  0  0  0  0  0  0  0  0  0  0  0
   -3.9241   -3.3657    0.5980 C   0  0  0  0  0  0  0  0  0  0  0  0
   -4.8207   -3.5749   -0.5477 N   0  0  0  0  0  0  0  0  0  0  0  0
   -5.6804   -4.7375   -0.3276 C   0  0  0  0  0  0  0  0  0  0  0  0
   -5.6341   -2.3549   -0.7213 C   0  0  0  0  0  0  0  0  0  0  0  0
   -4.7918   -1.0571   -0.9496 C   0  0  1  0  0  0  0  0  0  0  0  0
   -5.7510    0.1196   -0.8243 C   0  0  0  0  0  0  0  0  0  0  0  0
   -6.1812    0.5804    0.4236 C   0  0  0  0  0  0  0  0  0  0  0  0
   -7.0681    1.5797    0.6512 N   0  0  0  0  0  0  0  0  0  0  0  0
   -7.5144    2.1416   -0.4862 C   0  0  0  0  0  0  0  0  0  0  0  0
   -8.4037    3.1795   -0.5392 N   0  0  0  0  0  0  0  0  0  0  0  0
   -8.6521    3.5145   -1.8464 C   0  0  0  0  0  0  0  0  0  0  0  0
   -7.9021    2.6758   -2.6452 C   0  0  0  0  0  0  0  0  0  0  0  0
   -7.1771    1.8011   -1.7908 C   0  0  0  0  0  0  0  0  0  0  0  0
   -6.2645    0.7489   -1.9689 C   0  0  0  0  0  0  0  0  0  0  0  0
   -0.8484    1.7120    0.7378 C   0  0  0  0  0  0  0  0  0  0  0  0
    5.9419   -1.2400    0.4605 C   0  0  0  0  0  0  0  0  0  0  0  0
    5.9491   -2.1265   -0.7972 C   0  0  0  0  0  0  0  0  0  0  0  0
    6.1829   -2.6876   -3.4353 H   0  0  0  0  0  0  0  0  0  0  0  0
    7.9238   -2.3421   -3.5251 H   0  0  0  0  0  0  0  0  0  0  0  0
    7.3479   -3.6500   -2.5021 H   0  0  0  0  0  0  0  0  0  0  0  0
    7.6999    0.0172   -2.6824 H   0  0  0  0  0  0  0  0  0  0  0  0
    5.9829   -0.3115   -2.9535 H   0  0  0  0  0  0  0  0  0  0  0  0
    6.4609    1.6767   -1.3594 H   0  0  0  0  0  0  0  0  0  0  0  0
    7.7251    1.9586    1.1832 H   0  0  0  0  0  0  0  0  0  0  0  0
    7.3535    3.5650    3.0139 H   0  0  0  0  0  0  0  0  0  0  0  0
    5.1219    3.7174    4.0890 H   0  0  0  0  0  0  0  0  0  0  0  0
    3.2794    2.3200    3.3156 H   0  0  0  0  0  0  0  0  0  0  0  0
    2.6513   -0.2032   -0.5271 H   0  0  0  0  0  0  0  0  0  0  0  0
    3.6157    1.2590   -0.6850 H   0  0  0  0  0  0  0  0  0  0  0  0
    1.8389    2.6326    0.3205 H   0  0  0  0  0  0  0  0  0  0  0  0
    1.2482    1.7563   -1.0905 H   0  0  0  0  0  0  0  0  0  0  0  0
    0.3006    0.2919    2.8788 H   0  0  0  0  0  0  0  0  0  0  0  0
    1.2102    1.7837    2.7020 H   0  0  0  0  0  0  0  0  0  0  0  0
    2.7407   -0.0899    3.2668 H   0  0  0  0  0  0  0  0  0  0  0  0
    2.1161   -1.0410    1.9400 H   0  0  0  0  0  0  0  0  0  0  0  0
   -0.1104   -0.3134   -0.9031 H   0  0  0  0  0  0  0  0  0  0  0  0
    0.0769   -1.2247    0.6064 H   0  0  0  0  0  0  0  0  0  0  0  0
   -1.7916   -0.0009    1.7002 H   0  0  0  0  0  0  0  0  0  0  0  0
   -2.3630   -2.0386    1.2317 H   0  0  0  0  0  0  0  0  0  0  0  0
   -2.2777   -2.4605   -0.4786 H   0  0  0  0  0  0  0  0  0  0  0  0
   -4.4980   -3.1710    1.5139 H   0  0  0  0  0  0  0  0  0  0  0  0
   -3.3230   -4.2661    0.7732 H   0  0  0  0  0  0  0  0  0  0  0  0
   -6.3030   -4.6330    0.5684 H   0  0  0  0  0  0  0  0  0  0  0  0
   -5.0760   -5.6452   -0.2226 H   0  0  0  0  0  0  0  0  0  0  0  0
   -6.3388   -4.8956   -1.1889 H   0  0  0  0  0  0  0  0  0  0  0  0
   -6.2811   -2.2307    0.1592 H   0  0  0  0  0  0  0  0  0  0  0  0
   -6.3048   -2.4836   -1.5817 H   0  0  0  0  0  0  0  0  0  0  0  0
   -4.3822   -1.0930   -1.9690 H   0  0  0  0  0  0  0  0  0  0  0  0
   -5.8016    0.1217    1.3347 H   0  0  0  0  0  0  0  0  0  0  0  0
   -8.7979    3.6170    0.2801 H   0  0  0  0  0  0  0  0  0  0  0  0
   -9.3324    4.3186   -2.0924 H   0  0  0  0  0  0  0  0  0  0  0  0
   -7.8750    2.6922   -3.7268 H   0  0  0  0  0  0  0  0  0  0  0  0
   -5.9595    0.4462   -2.9652 H   0  0  0  0  0  0  0  0  0  0  0  0
   -0.9827    2.3221   -0.1638 H   0  0  0  0  0  0  0  0  0  0  0  0
   -1.1149    2.3272    1.6031 H   0  0  0  0  0  0  0  0  0  0  0  0
    6.7975   -1.5037    1.0959 H   0  0  0  0  0  0  0  0  0  0  0  0
    5.0379   -1.4698    1.0332 H   0  0  0  0  0  0  0  0  0  0  0  0
    4.9663   -2.0855   -1.2870 H   0  0  0  0  0  0  0  0  0  0  0  0
    6.1069   -3.1642   -0.4781 H   0  0  0  0  0  0  0  0  0  0  0  0
  1  2  1  0
  2  3  1  0
  3  4  1  0
  4  5  2  0
  5  6  1  0
  6  7  2  0
  7  8  1  0
  8  9  2  0
  9 10  1  0
 10 11  2  0
 11 12  1  0
 12 13  1  0
 13 14  1  0
 14 15  1  0
 15 16  1  0
 16 17  1  0
 15 18  1  0
 18 19  1  0
 19 20  1  0
 20 21  2  0
 20 22  1  0
 22 23  1  0
 23 24  1  0
 24 25  1  0
 25 26  1  0
 25 27  1  0
 27 28  1  0
 28 29  1  0
 29 30  2  0
 30 31  1  0
 31 32  2  0
 32 33  1  0
 33 34  1  0
 34 35  2  0
 35 36  1  0
 36 37  2  0
 19 38  1  0
  5 39  1  0
 39 40  1  0
 40  2  1  0
 11  6  1  0
 17 12  1  0
 28 22  1  0
 37 29  1  0
 38 15  1  0
 36 32  1  0
  1 41  1  0
  1 42  1  0
  1 43  1  0
  3 44  1  0
  3 45  1  0
  4 46  1  0
  7 47  1  0
  8 48  1  0
  9 49  1  0
 10 50  1  0
 13 51  1  0
 13 52  1  0
 14 53  1  0
 14 54  1  0
 16 55  1  0
 16 56  1  0
 17 57  1  0
 17 58  1  0
 18 59  1  0
 18 60  1  0
 19 61  1  0
 23 62  1  0
 23 63  1  0
 24 64  1  0
 24 65  1  0
 26 66  1  0
 26 67  1  0
 26 68  1  0
 27 69  1  0
 27 70  1  0
 28 71  1  6
 30 72  1  0
 33 73  1  0
 34 74  1  0
 35 75  1  0
 37 76  1  0
 38 77  1  0
 38 78  1  0
 39 79  1  0
 39 80  1  0
 40 81  1  0
 40 82  1  0
M  END
$$$$

     RDKit          3D

 82 88  0  0  0  0  0  0  0  0999 V2000
    6.5109    3.2708    1.6425 C   0  0  0  0  0  0  0  0  0  0  0  0
    5.9763    2.0809    0.9876 N   0  0  0  0  0  0  0  0  0  0  0  0
    6.4834    0.8606    1.6330 C   0  0  0  0  0  0  0  0  0  0  0  0
    6.1821   -0.3970    0.8676 C   0  0  0  0  0  0  0  0  0  0  0  0
    5.7612   -0.3926   -0.4107 C   0  0  0  0  0  0  0  0  0  0  0  0
    5.4707   -1.6499   -1.1348 C   0  0  0  0  0  0  0  0  0  0  0  0
    6.5645   -2.5073   -1.3725 C   0  0  0  0  0  0  0  0  0  0  0  0
    6.4180   -3.6678   -2.1272 C   0  0  0  0  0  0  0  0  0  0  0  0
    5.1772   -3.9820   -2.6618 C   0  0  0  0  0  0  0  0  0  0  0  0
    4.0826   -3.1428   -2.4303 C   0  0  0  0  0  0  0  0  0  0  0  0
    4.1875   -1.9712   -1.6546 C   0  0  0  0  0  0  0  0  0  0  0  0
    3.0594   -1.1803   -1.4064 N   0  0  0  0  0  0  0  0  0  0  0  0
    2.7194   -0.9341    0.0083 C   0  0  0  0  0  0  0  0  0  0  0  0
    1.2295   -1.1779    0.2505 C   0  0  0  0  0  0  0  0  0  0  0  0
    0.3751   -0.2567   -0.6405 C   0  0  0  0  0  0  0  0  0  0  0  0
    1.0334    0.0268   -2.0027 C   0  0  0  0  0  0  0  0  0  0  0  0
    1.9710   -1.1175   -2.3830 C   0  0  0  0  0  0  0  0  0  0  0  0
   -1.1075   -0.7177   -0.7253 C   0  0  0  0  0  0  0  0  0  0  0  0
   -1.5140    0.3793    0.2864 C   0  0  0  0  0  0  0  0  0  0  0  0
   -1.8746   -0.0742    1.7339 C   0  0  0  0  0  0  0  0  0  0  0  0
   -1.0407   -0.0939    2.6483 O   0  0  0  0  0  0  0  0  0  0  0  0
   -3.1964   -0.4602    1.9898 N   0  0  0  0  0  0  0  0  0  0  0  0
   -3.5100   -0.9859    3.3253 C   0  0  0  0  0  0  0  0  0  0  0  0
   -5.0121   -0.9384    3.6494 C   0  0  0  0  0  0  0  0  0  0  0  0
   -5.8500   -1.6807    2.6914 N   0  0  0  0  0  0  0  0  0  0  0  0
   -7.2136   -1.1590    2.6720 C   0  0  0  0  0  0  0  0  0  0  0  0
   -5.2517   -1.7499    1.3444 C   0  0  0  0  0  0  0  0  0  0  0  0
   -4.2315   -0.6346    0.9514 C   0  0  1  0  0  0  0  0  0  0  0  0
   -4.9273    0.6565    0.5504 C   0  0  0  0  0  0  0  0  0  0  0  0
   -4.9003    1.8134    1.3331 C   0  0  0  0  0  0  0  0  0  0  0  0
   -5.5016    2.9944    1.0468 N   0  0  0  0  0  0  0  0  0  0  0  0
   -6.1633    2.9743   -0.1219 C   0  0  0  0  0  0  0  0  0  0  0  0
   -6.8508    4.0361   -0.6418 N   0  0  0  0  0  0  0  0  0  0  0  0
   -7.4086    3.6835   -1.8450 C   0  0  0  0  0  0  0  0  0  0  0  0
   -7.0693    2.3701   -2.0982 C   0  0  0  0  0  0  0  0  0  0  0  0
   -6.2790    1.9129   -1.0094 C   0  0  0  0  0  0  0  0  0  0  0  0
   -5.6383    0.7127   -0.6627 C   0  0  0  0  0  0  0  0  0  0  0  0
   -0.1319    1.0378    0.0541 C   0  0  0  0  0  0  0  0  0  0  0  0
    5.5982    0.9039   -1.1640 C   0  0  0  0  0  0  0  0  0  0  0  0
    6.2910    2.0776   -0.4485 C   0  0  0  0  0  0  0  0  0  0  0  0
    6.2443    3.2781    2.7052 H   0  0  0  0  0  0  0  0  0  0  0  0
    6.0787    4.1772    1.2043 H   0  0  0  0  0  0  0  0  0  0  0  0
    7.6018    3.3358    1.5598 H   0  0  0  0  0  0  0  0  0  0  0  0
    7.5706    0.9115    1.7776 H   0  0  0  0  0  0  0  0  0  0  0  0
    6.0236    0.7740    2.6247 H   0  0  0  0  0  0  0  0  0  0  0  0
    6.3136   -1.3333    1.4024 H   0  0  0  0  0  0  0  0  0  0  0  0
    7.5486   -2.2546   -0.9839 H   0  0  0  0  0  0  0  0  0  0  0  0
    7.2721   -4.3150   -2.3046 H   0  0  0  0  0  0  0  0  0  0  0  0
    5.0513   -4.8834   -3.2553 H   0  0  0  0  0  0  0  0  0  0  0  0
    3.1260   -3.4435   -2.8463 H   0  0  0  0  0  0  0  0  0  0  0  0
    2.9642    0.1033    0.2630 H   0  0  0  0  0  0  0  0  0  0  0  0
    3.2827   -1.5909    0.6823 H   0  0  0  0  0  0  0  0  0  0  0  0
    1.0042   -2.2286    0.0246 H   0  0  0  0  0  0  0  0  0  0  0  0
    1.0022   -1.0319    1.3113 H   0  0  0  0  0  0  0  0  0  0  0  0
    1.6165    0.9560   -1.9479 H   0  0  0  0  0  0  0  0  0  0  0  0
    0.2811    0.1739   -2.7856 H   0  0  0  0  0  0  0  0  0  0  0  0
    2.3759   -0.9246   -3.3836 H   0  0  0  0  0  0  0  0  0  0  0  0
    1.4115   -2.0603   -2.4135 H   0  0  0  0  0  0  0  0  0  0  0  0
   -1.3028   -1.7460   -0.4028 H   0  0  0  0  0  0  0  0  0  0  0  0
   -1.5815   -0.5851   -1.7053 H   0  0  0  0  0  0  0  0  0  0  0  0
   -2.2923    1.0378   -0.1194 H   0  0  0  0  0  0  0  0  0  0  0  0
   -2.9577   -0.4158    4.0808 H   0  0  0  0  0  0  0  0  0  0  0  0
   -3.1431   -2.0191    3.3628 H   0  0  0  0  0  0  0  0  0  0  0  0
   -5.1752   -1.3531    4.6509 H   0  0  0  0  0  0  0  0  0  0  0  0
   -5.3157    0.1150    3.6914 H   0  0  0  0  0  0  0  0  0  0  0  0
   -7.8563   -1.7862    2.0444 H   0  0  0  0  0  0  0  0  0  0  0  0
   -7.2638   -0.1315    2.2968 H   0  0  0  0  0  0  0  0  0  0  0  0
   -7.6457   -1.1787    3.6788 H   0  0  0  0  0  0  0  0  0  0  0  0
   -4.6969   -2.6988    1.3234 H   0  0  0  0  0  0  0  0  0  0  0  0
   -6.0244   -1.8647    0.5734 H   0  0  0  0  0  0  0  0  0  0  0  0
   -3.7113   -0.9949    0.0560 H   0  0  0  0  0  0  0  0  0  0  0  0
   -4.3562    1.8349    2.2754 H   0  0  0  0  0  0  0  0  0  0  0  0
   -6.9185    4.9340   -0.1857 H   0  0  0  0  0  0  0  0  0  0  0  0
   -7.9940    4.3944   -2.4127 H   0  0  0  0  0  0  0  0  0  0  0  0
   -7.3594    1.8028   -2.9729 H   0  0  0  0  0  0  0  0  0  0  0  0
   -5.6980   -0.1447   -1.3258 H   0  0  0  0  0  0  0  0  0  0  0  0
    0.4162    1.3386    0.9526 H   0  0  0  0  0  0  0  0  0  0  0  0
   -0.1901    1.9155   -0.6024 H   0  0  0  0  0  0  0  0  0  0  0  0
    6.0226    0.8133   -2.1714 H   0  0  0  0  0  0  0  0  0  0  0  0
    4.5336    1.1373   -1.2791 H   0  0  0  0  0  0  0  0  0  0  0  0
    5.9455    3.0089   -0.9143 H   0  0  0  0  0  0  0  0  0  0  0  0
    7.3768    2.0223   -0.6074 H   0  0  0  0  0  0  0  0  0  0  0  0
  1  2  1  0
  2  3  1  0
  3  4  1  0
  4  5  2  0
  5  6  1  0
  6  7  2  0
  7  8  1  0
  8  9  2  0
  9 10  1  0
 10 11  2  0
 11 12  1  0
 12 13  1  0
 13 14  1  0
 14 15  1  0
 15 16  1  0
 16 17  1  0
 15 18  1  0
 18 19  1  0
 19 20  1  0
 20 21  2  0
 20 22  1  0
 22 23  1  0
 23 24  1  0
 24 25  1  0
 25 26  1  0
 25 27  1  0
 27 28  1  0
 28 29  1  0
 29 30  2  0
 30 31  1  0
 31 32  2  0
 32 33  1  0
 33 34  1  0
 34 35  2  0
 35 36  1  0
 36 37  2  0
 19 38  1  0
  5 39  1  0
 39 40  1  0
 40  2  1  0
 11  6  1  0
 17 12  1  0
 28 22  1  0
 37 29  1  0
 38 15  1  0
 36 32  1  0
  1 41  1  0
  1 42  1  0
  1 43  1  0
  3 44  1  0
  3 45  1  0
  4 46  1  0
  7 47  1  0
  8 48  1  0
  9 49  1  0
 10 50  1  0
 13 51  1  0
 13 52  1  0
 14 53  1  0
 14 54  1  0
 16 55  1  0
 16 56  1  0
 17 57  1  0
 17 58  1  0
 18 59  1  0
 18 60  1  0
 19 61  1  0
 23 62  1  0
 23 63  1  0
 24 64  1  0
 24 65  1  0
 26 66  1  0
 26 67  1  0
 26 68  1  0
 27 69  1  0
 27 70  1  0
 28 71  1  6
 30 72  1  0
 33 73  1  0
 34 74  1  0
 35 75  1  0
 37 76  1  0
 38 77  1  0
 38 78  1  0
 39 79  1  0
 39 80  1  0
 40 81  1  0
 40 82  1  0
M  END
$$$$

     RDKit          3D

 82 88  0  0  0  0  0  0  0  0999 V2000
    7.5960    2.7491    1.7169 C   0  0  0  0  0  0  0  0  0  0  0  0
    6.1819    2.6251    2.0678 N   0  0  0  0  0  0  0  0  0  0  0  0
    5.9410    1.4630    2.9363 C   0  0  0  0  0  0  0  0  0  0  0  0
    5.8043    0.1452    2.2257 C   0  0  0  0  0  0  0  0  0  0  0  0
    5.6089    0.0407    0.8975 C   0  0  0  0  0  0  0  0  0  0  0  0
    5.4851   -1.2823    0.2434 C   0  0  0  0  0  0  0  0  0  0  0  0
    6.6273   -2.1081    0.2736 C   0  0  0  0  0  0  0  0  0  0  0  0
    6.6458   -3.3340   -0.3855 C   0  0  0  0  0  0  0  0  0  0  0  0
    5.5252   -3.7459   -1.0917 C   0  0  0  0  0  0  0  0  0  0  0  0
    4.3841   -2.9383   -1.1273 C   0  0  0  0  0  0  0  0  0  0  0  0
    4.3203   -1.7033   -0.4553 C   0  0  0  0  0  0  0  0  0  0  0  0
    3.1520   -0.9369   -0.4756 N   0  0  0  0  0  0  0  0  0  0  0  0
    2.4828   -0.6965    0.8097 C   0  0  0  0  0  0  0  0  0  0  0  0
    1.2600   -1.6039    0.9590 C   0  0  0  0  0  0  0  0  0  0  0  0
    0.3257   -1.4425   -0.2489 C   0  0  0  0  0  0  0  0  0  0  0  0
    1.0735   -1.7545   -1.5492 C   0  0  0  0  0  0  0  0  0  0  0  0
    2.3114   -0.8662   -1.6719 C   0  0  0  0  0  0  0  0  0  0  0  0
   -0.5339   -0.1395   -0.2678 C   0  0  0  0  0  0  0  0  0  0  0  0
   -1.6968   -0.9353    0.3649 C   0  0  0  0  0  0  0  0  0  0  0  0
   -3.1830   -0.7062    0.0199 C   0  0  0  0  0  0  0  0  0  0  0  0
   -4.0690   -1.1761    0.7480 O   0  0  0  0  0  0  0  0  0  0  0  0
   -3.5042    0.1304   -1.0668 N   0  0  0  0  0  0  0  0  0  0  0  0
   -3.0037   -0.2612   -2.3942 C   0  0  0  0  0  0  0  0  0  0  0  0
   -4.1318   -0.6313   -3.4004 C   0  0  0  0  0  0  0  0  0  0  0  0
   -5.2705   -1.2889   -2.7470 N   0  0  0  0  0  0  0  0  0  0  0  0
   -6.2893   -1.7131   -3.6983 C   0  0  0  0  0  0  0  0  0  0  0  0
   -5.8509   -0.4535   -1.6587 C   0  0  0  0  0  0  0  0  0  0  0  0
   -4.8808    0.6519   -1.1298 C   0  0  1  0  0  0  0  0  0  0  0  0
   -5.2949    1.4518    0.0907 C   0  0  0  0  0  0  0  0  0  0  0  0
   -4.6181    2.6431    0.3809 C   0  0  0  0  0  0  0  0  0  0  0  0
   -4.8709    3.4933    1.4063 N   0  0  0  0  0  0  0  0  0  0  0  0
   -5.8772    3.0679    2.1892 C   0  0  0  0  0  0  0  0  0  0  0  0
   -6.3282    3.7287    3.2985 N   0  0  0  0  0  0  0  0  0  0  0  0
   -7.3581    3.0267    3.8723 C   0  0  0  0  0  0  0  0  0  0  0  0
   -7.5670    1.8925    3.1147 C   0  0  0  0  0  0  0  0  0  0  0  0
   -6.6334    1.9120    2.0427 C   0  0  0  0  0  0  0  0  0  0  0  0
   -6.3324    1.0740    0.9548 C   0  0  0  0  0  0  0  0  0  0  0  0
   -1.0073   -2.2345   -0.1090 C   0  0  0  0  0  0  0  0  0  0  0  0
    5.5019    1.2724    0.0334 C   0  0  0  0  0  0  0  0  0  0  0  0
    5.3246    2.5520    0.8719 C   0  0  0  0  0  0  0  0  0  0  0  0
    8.1964    2.9125    2.6190 H   0  0  0  0  0  0  0  0  0  0  0  0
    7.9957    1.8696    1.2011 H   0  0  0  0  0  0  0  0  0  0  0  0
    7.7565    3.6239    1.0769 H   0  0  0  0  0  0  0  0  0  0  0  0
    6.7324    1.3867    3.6924 H   0  0  0  0  0  0  0  0  0  0  0  0
    5.0140    1.6371    3.4972 H   0  0  0  0  0  0  0  0  0  0  0  0
    5.8466   -0.7443    2.8485 H   0  0  0  0  0  0  0  0  0  0  0  0
    7.5222   -1.7811    0.7988 H   0  0  0  0  0  0  0  0  0  0  0  0
    7.5356   -3.9563   -0.3559 H   0  0  0  0  0  0  0  0  0  0  0  0
    5.5298   -4.6987   -1.6142 H   0  0  0  0  0  0  0  0  0  0  0  0
    3.5261   -3.3111   -1.6762 H   0  0  0  0  0  0  0  0  0  0  0  0
    3.1378   -0.8649    1.6704 H   0  0  0  0  0  0  0  0  0  0  0  0
    2.1776    0.3558    0.8472 H   0  0  0  0  0  0  0  0  0  0  0  0
    1.5869   -2.6491    1.0339 H   0  0  0  0  0  0  0  0  0  0  0  0
    0.7441   -1.3640    1.8960 H   0  0  0  0  0  0  0  0  0  0  0  0
    0.4276   -1.5971   -2.4214 H   0  0  0  0  0  0  0  0  0  0  0  0
    1.3588   -2.8124   -1.5588 H   0  0  0  0  0  0  0  0  0  0  0  0
    2.8729   -1.1141   -2.5807 H   0  0  0  0  0  0  0  0  0  0  0  0
    1.9926    0.1769   -1.7932 H   0  0  0  0  0  0  0  0  0  0  0  0
   -0.7062    0.2608   -1.2694 H   0  0  0  0  0  0  0  0  0  0  0  0
   -0.1654    0.6854    0.3509 H   0  0  0  0  0  0  0  0  0  0  0  0
   -1.6089   -0.8584    1.4636 H   0  0  0  0  0  0  0  0  0  0  0  0
   -2.4398    0.5888   -2.7937 H   0  0  0  0  0  0  0  0  0  0  0  0
   -2.3285   -1.1141   -2.3067 H   0  0  0  0  0  0  0  0  0  0  0  0
   -3.7000   -1.2809   -4.1716 H   0  0  0  0  0  0  0  0  0  0  0  0
   -4.4697    0.2791   -3.9137 H   0  0  0  0  0  0  0  0  0  0  0  0
   -6.7270   -0.8655   -4.2375 H   0  0  0  0  0  0  0  0  0  0  0  0
   -7.0944   -2.2509   -3.1856 H   0  0  0  0  0  0  0  0  0  0  0  0
   -5.8651   -2.4058   -4.4334 H   0  0  0  0  0  0  0  0  0  0  0  0
   -6.7715    0.0444   -1.9921 H   0  0  0  0  0  0  0  0  0  0  0  0
   -6.1370   -1.1417   -0.8561 H   0  0  0  0  0  0  0  0  0  0  0  0
   -4.8555    1.4157   -1.9241 H   0  0  0  0  0  0  0  0  0  0  0  0
   -3.7953    2.9677   -0.2545 H   0  0  0  0  0  0  0  0  0  0  0  0
   -5.9366    4.5991    3.6258 H   0  0  0  0  0  0  0  0  0  0  0  0
   -7.8457    3.3902    4.7667 H   0  0  0  0  0  0  0  0  0  0  0  0
   -8.3085    1.1295    3.3118 H   0  0  0  0  0  0  0  0  0  0  0  0
   -6.8859    0.1514    0.8235 H   0  0  0  0  0  0  0  0  0  0  0  0
   -1.3998   -2.6427   -1.0466 H   0  0  0  0  0  0  0  0  0  0  0  0
   -1.0034   -3.0458    0.6268 H   0  0  0  0  0  0  0  0  0  0  0  0
    4.6618    1.2078   -0.6652 H   0  0  0  0  0  0  0  0  0  0  0  0
    6.4120    1.3535   -0.5744 H   0  0  0  0  0  0  0  0  0  0  0  0
    4.2771    2.6217    1.1964 H   0  0  0  0  0  0  0  0  0  0  0  0
    5.4891    3.4315    0.2369 H   0  0  0  0  0  0  0  0  0  0  0  0
  1  2  1  0
  2  3  1  0
  3  4  1  0
  4  5  2  0
  5  6  1  0
  6  7  2  0
  7  8  1  0
  8  9  2  0
  9 10  1  0
 10 11  2  0
 11 12  1  0
 12 13  1  0
 13 14  1  0
 14 15  1  0
 15 16  1  0
 16 17  1  0
 15 18  1  0
 18 19  1  0
 19 20  1  0
 20 21  2  0
 20 22  1  0
 22 23  1  0
 23 24  1  0
 24 25  1  0
 25 26  1  0
 25 27  1  0
 27 28  1  0
 28 29  1  0
 29 30  2  0
 30 31  1  0
 31 32  2  0
 32 33  1  0
 33 34  1  0
 34 35  2  0
 35 36  1  0
 36 37  2  0
 19 38  1  0
  5 39  1  0
 39 40  1  0
 40  2  1  0
 11  6  1  0
 17 12  1  0
 28 22  1  0
 37 29  1  0
 38 15  1  0
 36 32  1  0
  1 41  1  0
  1 42  1  0
  1 43  1  0
  3 44  1  0
  3 45  1  0
  4 46  1  0
  7 47  1  0
  8 48  1  0
  9 49  1  0
 10 50  1  0
 13 51  1  0
 13 52  1  0
 14 53  1  0
 14 54  1  0
 16 55  1  0
 16 56  1  0
 17 57  1  0
 17 58  1  0
 18 59  1  0
 18 60  1  0
 19 61  1  0
 23 62  1  0
 23 63  1  0
 24 64  1  0
 24 65  1  0
 26 66  1  0
 26 67  1  0
 26 68  1  0
 27 69  1  0
 27 70  1  0
 28 71  1  6
 30 72  1  0
 33 73  1  0
 34 74  1  0
 35 75  1  0
 37 76  1  0
 38 77  1  0
 38 78  1  0
 39 79  1  0
 39 80  1  0
 40 81  1  0
 40 82  1  0
M  END
$$$$
