
     RDKit          3D

 76 81  0  0  0  0  0  0  0  0999 V2000
   -2.2002    3.8039    2.3191 C   0  0  0  0  0  0  0  0  0  0  0  0
   -1.7305    2.4935    2.7685 N   0  0  0  0  0  0  0  0  0  0  0  0
   -0.8609    1.8633    1.7635 C   0  0  0  0  0  0  0  0  0  0  0  0
   -1.5752    1.1216    0.6702 C   0  0  0  0  0  0  0  0  0  0  0  0
   -2.8705    0.7709    0.7328 C   0  0  0  0  0  0  0  0  0  0  0  0
   -3.5256    0.0824   -0.3947 C   0  0  0  0  0  0  0  0  0  0  0  0
   -4.4117    0.8711   -1.1563 C   0  0  0  0  0  0  0  0  0  0  0  0
   -5.0903    0.3485   -2.2559 C   0  0  0  0  0  0  0  0  0  0  0  0
   -4.8915   -0.9749   -2.6188 C   0  0  0  0  0  0  0  0  0  0  0  0
   -4.0186   -1.7725   -1.8788 C   0  0  0  0  0  0  0  0  0  0  0  0
   -3.3181   -1.2709   -0.7567 C   0  0  0  0  0  0  0  0  0  0  0  0
   -2.4227   -2.2692   -0.0018 C   0  0  2  0  0  0  0  0  0  0  0  0
   -3.0454   -2.5582    1.4036 C   0  0  0  0  0  0  0  0  0  0  0  0
   -2.1672   -3.1902    2.4054 N   0  0  0  0  0  0  0  0  0  0  0  0
   -1.9004   -4.5902    2.0895 C   0  0  0  0  0  0  0  0  0  0  0  0
   -0.9438   -2.3811    2.4916 C   0  0  0  0  0  0  0  0  0  0  0  0
   -0.1789   -2.2484    1.1684 C   0  0  0  0  0  0  0  0  0  0  0  0
   -0.9803   -1.9182   -0.0148 N   0  0  0  0  0  0  0  0  0  0  0  0
   -0.3313   -1.9159   -1.2725 C   0  0  0  0  0  0  0  0  0  0  0  0
   -0.9529   -2.1389   -2.3187 O   0  0  0  0  0  0  0  0  0  0  0  0
    1.2053   -1.6536   -1.2837 C   0  0  0  0  0  0  0  0  0  0  0  0
    1.6923   -0.1980   -1.0575 C   0  0  0  0  0  0  0  0  0  0  0  0
    2.8196   -0.4463   -2.1085 C   0  0  0  0  0  0  0  0  0  0  0  0
    4.1545   -0.9180   -1.5241 C   0  0  0  0  0  0  0  0  0  0  0  0
    4.8401    0.2353   -0.7752 C   0  0  0  0  0  0  0  0  0  0  0  0
    4.4463    1.5700   -1.2530 N   0  0  0  0  0  0  0  0  0  0  0  0
    5.3771    2.6162   -0.8050 C   0  0  0  0  0  0  0  0  0  0  0  0
    4.8530    4.0067   -0.5683 C   0  0  0  0  0  0  0  0  0  0  0  0
    5.2580    3.1524    0.5959 C   0  0  0  0  0  0  0  0  0  0  0  0
    4.2367    1.5809   -2.7010 C   0  0  0  0  0  0  0  0  0  0  0  0
    3.0441    0.7024   -3.1037 C   0  0  0  0  0  0  0  0  0  0  0  0
    1.9112   -1.5789   -2.6682 C   0  0  0  0  0  0  0  0  0  0  0  0
   -3.7142    1.1668    1.9197 C   0  0  0  0  0  0  0  0  0  0  0  0
   -2.8487    1.6005    3.1176 C   0  0  0  0  0  0  0  0  0  0  0  0
   -2.8401    4.2636    3.0806 H   0  0  0  0  0  0  0  0  0  0  0  0
   -2.7600    3.7654    1.3786 H   0  0  0  0  0  0  0  0  0  0  0  0
   -1.3511    4.4825    2.1789 H   0  0  0  0  0  0  0  0  0  0  0  0
   -0.2034    1.1490    2.2751 H   0  0  0  0  0  0  0  0  0  0  0  0
   -0.1919    2.6103    1.3184 H   0  0  0  0  0  0  0  0  0  0  0  0
   -0.9884    0.8724   -0.2072 H   0  0  0  0  0  0  0  0  0  0  0  0
   -4.5680    1.9174   -0.9003 H   0  0  0  0  0  0  0  0  0  0  0  0
   -5.7613    0.9790   -2.8323 H   0  0  0  0  0  0  0  0  0  0  0  0
   -5.4034   -1.3884   -3.4834 H   0  0  0  0  0  0  0  0  0  0  0  0
   -3.8665   -2.8018   -2.2006 H   0  0  0  0  0  0  0  0  0  0  0  0
   -2.4600   -3.2320   -0.5326 H   0  0  0  0  0  0  0  0  0  0  0  0
   -3.9585   -3.1564    1.2772 H   0  0  0  0  0  0  0  0  0  0  0  0
   -3.3997   -1.6327    1.8627 H   0  0  0  0  0  0  0  0  0  0  0  0
   -2.8331   -5.1648    2.1091 H   0  0  0  0  0  0  0  0  0  0  0  0
   -1.2451   -5.0331    2.8477 H   0  0  0  0  0  0  0  0  0  0  0  0
   -1.4361   -4.7376    1.1092 H   0  0  0  0  0  0  0  0  0  0  0  0
   -1.2141   -1.3791    2.8479 H   0  0  0  0  0  0  0  0  0  0  0  0
   -0.2771   -2.7922    3.2595 H   0  0  0  0  0  0  0  0  0  0  0  0
    0.5956   -1.4834    1.2853 H   0  0  0  0  0  0  0  0  0  0  0  0
    0.3339   -3.1952    0.9581 H   0  0  0  0  0  0  0  0  0  0  0  0
    1.7378   -2.3723   -0.6451 H   0  0  0  0  0  0  0  0  0  0  0  0
    2.0183    0.0294   -0.0385 H   0  0  0  0  0  0  0  0  0  0  0  0
    0.9615    0.5614   -1.3581 H   0  0  0  0  0  0  0  0  0  0  0  0
    4.8044   -1.2604   -2.3401 H   0  0  0  0  0  0  0  0  0  0  0  0
    4.0290   -1.7696   -0.8458 H   0  0  0  0  0  0  0  0  0  0  0  0
    5.9262    0.0903   -0.8440 H   0  0  0  0  0  0  0  0  0  0  0  0
    4.5824    0.1672    0.2888 H   0  0  0  0  0  0  0  0  0  0  0  0
    6.3851    2.5444   -1.2106 H   0  0  0  0  0  0  0  0  0  0  0  0
    3.7951    4.1899   -0.7166 H   0  0  0  0  0  0  0  0  0  0  0  0
    5.4914    4.8396   -0.8366 H   0  0  0  0  0  0  0  0  0  0  0  0
    4.4716    2.7642    1.2326 H   0  0  0  0  0  0  0  0  0  0  0  0
    6.1718    3.4052    1.1197 H   0  0  0  0  0  0  0  0  0  0  0  0
    4.0468    2.5991   -3.0630 H   0  0  0  0  0  0  0  0  0  0  0  0
    5.1441    1.2369   -3.2158 H   0  0  0  0  0  0  0  0  0  0  0  0
    3.2398    0.2995   -4.1054 H   0  0  0  0  0  0  0  0  0  0  0  0
    2.1400    1.3180   -3.1858 H   0  0  0  0  0  0  0  0  0  0  0  0
    2.4256   -2.4940   -2.9779 H   0  0  0  0  0  0  0  0  0  0  0  0
    1.2557   -1.2617   -3.4889 H   0  0  0  0  0  0  0  0  0  0  0  0
   -4.3795    1.9906    1.6327 H   0  0  0  0  0  0  0  0  0  0  0  0
   -4.3577    0.3380    2.2348 H   0  0  0  0  0  0  0  0  0  0  0  0
   -3.4846    2.0726    3.8769 H   0  0  0  0  0  0  0  0  0  0  0  0
   -2.4357    0.7058    3.6028 H   0  0  0  0  0  0  0  0  0  0  0  0
  1  2  1  0
  2  3  1  0
  3  4  1  0
  4  5  2  0
  5  6  1  0
  6  7  2  0
  7  8  1  0
  8  9  2  0
  9 10  1  0
 10 11  2  0
 11 12  1  0
 12 13  1  0
 13 14  1  0
 14 15  1  0
 14 16  1  0
 16 17  1  0
 17 18  1  0
 18 19  1  0
 19 20  2  0
 19 21  1  0
 21 22  1  0
 22 23  1  0
 23 24  1  0
 24 25  1  0
 25 26  1  0
 26 27  1  0
 27 28  1  0
 28 29  1  0
 26 30  1  0
 30 31  1  0
 23 32  1  0
  5 33  1  0
 33 34  1  0
 34  2  1  0
 11  6  1  0
 18 12  1  0
 32 21  1  0
 31 23  1  0
 29 27  1  0
  1 35  1  0
  1 36  1  0
  1 37  1  0
  3 38  1  0
  3 39  1  0
  4 40  1  0
  7 41  1  0
  8 42  1  0
  9 43  1  0
 10 44  1  0
 12 45  1  6
 13 46  1  0
 13 47  1  0
 15 48  1  0
 15 49  1  0
 15 50  1  0
 16 51  1  0
 16 52  1  0
 17 53  1  0
 17 54  1  0
 21 55  1  0
 22 56  1  0
 22 57  1  0
 24 58  1  0
 24 59  1  0
 25 60  1  0
 25 61  1  0
 27 62  1  0
 28 63  1  0
 28 64  1  0
 29 65  1  0
 29 66  1  0
 30 67  1  0
 30 68  1  0
 31 69  1  0
 31 70  1  0
 32 71  1  0
 32 72  1  0
 33 73  1  0
 33 74  1  0
 34 75  1  0
 34 76  1  0
M  END
$$$$

     RDKit          3D

 76 81  0  0  0  0  0  0  0  0999 V2000
   -5.8583   -0.5018   -2.3758 C   0  0  0  0  0  0  0  0  0  0  0  0
   -4.5698   -1.0092   -1.9117 N   0  0  0  0  0  0  0  0  0  0  0  0
   -3.5854    0.0789   -1.8251 C   0  0  0  0  0  0  0  0  0  0  0  0
   -2.3065   -0.3248   -1.1454 C   0  0  0  0  0  0  0  0  0  0  0  0
   -2.1988   -1.4343   -0.3938 C   0  0  0  0  0  0  0  0  0  0  0  0
   -0.9226   -1.8432    0.2105 C   0  0  0  0  0  0  0  0  0  0  0  0
   -0.1676   -2.7447   -0.5704 C   0  0  0  0  0  0  0  0  0  0  0  0
    1.0355   -3.2769   -0.1135 C   0  0  0  0  0  0  0  0  0  0  0  0
    1.5030   -2.9251    1.1418 C   0  0  0  0  0  0  0  0  0  0  0  0
    0.7762   -2.0247    1.9214 C   0  0  0  0  0  0  0  0  0  0  0  0
   -0.4344   -1.4355    1.4717 C   0  0  0  0  0  0  0  0  0  0  0  0
   -1.1134   -0.4839    2.4579 C   0  0  2  0  0  0  0  0  0  0  0  0
   -2.4248    0.2933    2.1300 C   0  0  0  0  0  0  0  0  0  0  0  0
   -3.0377    0.9147    3.3423 N   0  0  0  0  0  0  0  0  0  0  0  0
   -4.2022    1.7188    2.9781 C   0  0  0  0  0  0  0  0  0  0  0  0
   -2.0598    1.7225    4.1092 C   0  0  0  0  0  0  0  0  0  0  0  0
   -0.7585    0.9420    4.3996 C   0  0  0  0  0  0  0  0  0  0  0  0
   -0.1900    0.4761    3.1312 N   0  0  0  0  0  0  0  0  0  0  0  0
    0.6302    1.4213    2.4793 C   0  0  0  0  0  0  0  0  0  0  0  0
    1.1285    2.3516    3.1355 O   0  0  0  0  0  0  0  0  0  0  0  0
    0.8886    1.3227    0.9536 C   0  0  0  0  0  0  0  0  0  0  0  0
    1.2102    2.6476    0.2021 C   0  0  0  0  0  0  0  0  0  0  0  0
    2.2663    1.8809   -0.6446 C   0  0  0  0  0  0  0  0  0  0  0  0
    1.7530    1.3448   -1.9841 C   0  0  0  0  0  0  0  0  0  0  0  0
    2.7875    0.3938   -2.6044 C   0  0  0  0  0  0  0  0  0  0  0  0
    4.1743    0.6815   -2.2059 N   0  0  0  0  0  0  0  0  0  0  0  0
    5.1526    0.0647   -3.1126 C   0  0  0  0  0  0  0  0  0  0  0  0
    5.4660   -1.3997   -2.9650 C   0  0  0  0  0  0  0  0  0  0  0  0
    6.4828   -0.3733   -2.5627 C   0  0  0  0  0  0  0  0  0  0  0  0
    4.3970    2.1142   -2.0165 C   0  0  0  0  0  0  0  0  0  0  0  0
    3.5748    2.6617   -0.8412 C   0  0  0  0  0  0  0  0  0  0  0  0
    2.2906    0.8292    0.5072 C   0  0  0  0  0  0  0  0  0  0  0  0
   -3.3785   -2.3581   -0.2064 C   0  0  0  0  0  0  0  0  0  0  0  0
   -4.7062   -1.6989   -0.6216 C   0  0  0  0  0  0  0  0  0  0  0  0
   -5.7527   -0.0201   -3.3543 H   0  0  0  0  0  0  0  0  0  0  0  0
   -6.5707   -1.3240   -2.5060 H   0  0  0  0  0  0  0  0  0  0  0  0
   -6.2938    0.2235   -1.6790 H   0  0  0  0  0  0  0  0  0  0  0  0
   -3.3399    0.4092   -2.8416 H   0  0  0  0  0  0  0  0  0  0  0  0
   -3.9938    0.9441   -1.2866 H   0  0  0  0  0  0  0  0  0  0  0  0
   -1.4550    0.3295   -1.2987 H   0  0  0  0  0  0  0  0  0  0  0  0
   -0.5306   -3.0490   -1.5517 H   0  0  0  0  0  0  0  0  0  0  0  0
    1.5964   -3.9708   -0.7333 H   0  0  0  0  0  0  0  0  0  0  0  0
    2.4349   -3.3405    1.5163 H   0  0  0  0  0  0  0  0  0  0  0  0
    1.1714   -1.7676    2.9048 H   0  0  0  0  0  0  0  0  0  0  0  0
   -1.4111   -1.1892    3.2523 H   0  0  0  0  0  0  0  0  0  0  0  0
   -3.1721   -0.3967    1.7365 H   0  0  0  0  0  0  0  0  0  0  0  0
   -2.2223    1.0657    1.3783 H   0  0  0  0  0  0  0  0  0  0  0  0
   -4.9502    1.1024    2.4674 H   0  0  0  0  0  0  0  0  0  0  0  0
   -3.9381    2.5549    2.3208 H   0  0  0  0  0  0  0  0  0  0  0  0
   -4.6855    2.1232    3.8743 H   0  0  0  0  0  0  0  0  0  0  0  0
   -2.5060    2.0232    5.0642 H   0  0  0  0  0  0  0  0  0  0  0  0
   -1.8140    2.6376    3.5545 H   0  0  0  0  0  0  0  0  0  0  0  0
   -0.9611    0.0693    5.0322 H   0  0  0  0  0  0  0  0  0  0  0  0
   -0.0541    1.5759    4.9478 H   0  0  0  0  0  0  0  0  0  0  0  0
    0.0774    0.8248    0.4199 H   0  0  0  0  0  0  0  0  0  0  0  0
    0.3730    3.0772   -0.3572 H   0  0  0  0  0  0  0  0  0  0  0  0
    1.6328    3.4365    0.8363 H   0  0  0  0  0  0  0  0  0  0  0  0
    0.7984    0.8196   -1.8772 H   0  0  0  0  0  0  0  0  0  0  0  0
    1.5736    2.1863   -2.6659 H   0  0  0  0  0  0  0  0  0  0  0  0
    2.6702    0.4290   -3.6953 H   0  0  0  0  0  0  0  0  0  0  0  0
    2.5536   -0.6333   -2.2980 H   0  0  0  0  0  0  0  0  0  0  0  0
    5.1569    0.4595   -4.1273 H   0  0  0  0  0  0  0  0  0  0  0  0
    4.9717   -1.9550   -2.1763 H   0  0  0  0  0  0  0  0  0  0  0  0
    5.6472   -1.9708   -3.8672 H   0  0  0  0  0  0  0  0  0  0  0  0
    7.3558   -0.2458   -3.1910 H   0  0  0  0  0  0  0  0  0  0  0  0
    6.6710   -0.2368   -1.5041 H   0  0  0  0  0  0  0  0  0  0  0  0
    4.1436    2.6595   -2.9357 H   0  0  0  0  0  0  0  0  0  0  0  0
    5.4553    2.3243   -1.8177 H   0  0  0  0  0  0  0  0  0  0  0  0
    3.3563    3.7180   -1.0426 H   0  0  0  0  0  0  0  0  0  0  0  0
    4.1753    2.6362    0.0762 H   0  0  0  0  0  0  0  0  0  0  0  0
    3.0709    0.9923    1.2608 H   0  0  0  0  0  0  0  0  0  0  0  0
    2.3436   -0.2153    0.1927 H   0  0  0  0  0  0  0  0  0  0  0  0
   -3.4567   -2.6740    0.8408 H   0  0  0  0  0  0  0  0  0  0  0  0
   -3.2201   -3.2625   -0.8081 H   0  0  0  0  0  0  0  0  0  0  0  0
   -5.0368   -0.9995    0.1583 H   0  0  0  0  0  0  0  0  0  0  0  0
   -5.4674   -2.4860   -0.6905 H   0  0  0  0  0  0  0  0  0  0  0  0
  1  2  1  0
  2  3  1  0
  3  4  1  0
  4  5  2  0
  5  6  1  0
  6  7  2  0
  7  8  1  0
  8  9  2  0
  9 10  1  0
 10 11  2  0
 11 12  1  0
 12 13  1  0
 13 14  1  0
 14 15  1  0
 14 16  1  0
 16 17  1  0
 17 18  1  0
 18 19  1  0
 19 20  2  0
 19 21  1  0
 21 22  1  0
 22 23  1  0
 23 24  1  0
 24 25  1  0
 25 26  1  0
 26 27  1  0
 27 28  1  0
 28 29  1  0
 26 30  1  0
 30 31  1  0
 23 32  1  0
  5 33  1  0
 33 34  1  0
 34  2  1  0
 11  6  1  0
 18 12  1  0
 32 21  1  0
 31 23  1  0
 29 27  1  0
  1 35  1  0
  1 36  1  0
  1 37  1  0
  3 38  1  0
  3 39  1  0
  4 40  1  0
  7 41  1  0
  8 42  1  0
  9 43  1  0
 10 44  1  0
 12 45  1  1
 13 46  1  0
 13 47  1  0
 15 48  1  0
 15 49  1  0
 15 50  1  0
 16 51  1  0
 16 52  1  0
 17 53  1  0
 17 54  1  0
 21 55  1  0
 22 56  1  0
 22 57  1  0
 24 58  1  0
 24 59  1  0
 25 60  1  0
 25 61  1  0
 27 62  1  0
 28 63  1  0
 28 64  1  0
 29 65  1  0
 29 66  1  0
 30 67  1  0
 30 68  1  0
 31 69  1  0
 31 70  1  0
 32 71  1  0
 32 72  1  0
 33 73  1  0
 33 74  1  0
 34 75  1  0
 34 76  1  0
M  END
$$$$

     RDKit          3D

 76 81  0  0  0  0  0  0  0  0999 V2000
   -2.5750    4.3220   -0.6361 C   0  0  0  0  0  0  0  0  0  0  0  0
   -3.2153    3.0592   -0.2775 N   0  0  0  0  0  0  0  0  0  0  0  0
   -2.5461    2.4528    0.8825 C   0  0  0  0  0  0  0  0  0  0  0  0
   -2.9915    1.0468    1.1654 C   0  0  0  0  0  0  0  0  0  0  0  0
   -3.6649    0.3014    0.2708 C   0  0  0  0  0  0  0  0  0  0  0  0
   -4.1595   -1.0374    0.6348 C   0  0  0  0  0  0  0  0  0  0  0  0
   -5.3257   -1.0526    1.4275 C   0  0  0  0  0  0  0  0  0  0  0  0
   -5.9075   -2.2482    1.8351 C   0  0  0  0  0  0  0  0  0  0  0  0
   -5.3318   -3.4489    1.4522 C   0  0  0  0  0  0  0  0  0  0  0  0
   -4.1747   -3.4514    0.6676 C   0  0  0  0  0  0  0  0  0  0  0  0
   -3.5482   -2.2568    0.2484 C   0  0  0  0  0  0  0  0  0  0  0  0
   -2.2854   -2.2882   -0.6343 C   0  0  2  0  0  0  0  0  0  0  0  0
   -1.7366   -3.6927   -1.0742 C   0  0  0  0  0  0  0  0  0  0  0  0
   -0.7721   -4.3405   -0.1450 N   0  0  0  0  0  0  0  0  0  0  0  0
   -0.9429   -5.7856   -0.0955 C   0  0  0  0  0  0  0  0  0  0  0  0
   -0.7714   -3.7286    1.1906 C   0  0  0  0  0  0  0  0  0  0  0  0
   -0.5467   -2.1983    1.1402 C   0  0  0  0  0  0  0  0  0  0  0  0
   -1.1583   -1.5572   -0.0287 N   0  0  0  0  0  0  0  0  0  0  0  0
   -0.4875   -0.6054   -0.8019 C   0  0  0  0  0  0  0  0  0  0  0  0
   -0.8404   -0.3655   -1.9645 O   0  0  0  0  0  0  0  0  0  0  0  0
    0.6942    0.1528   -0.1310 C   0  0  0  0  0  0  0  0  0  0  0  0
    1.1136    1.5160   -0.7507 C   0  0  0  0  0  0  0  0  0  0  0  0
    2.6012    1.1365   -0.5064 C   0  0  0  0  0  0  0  0  0  0  0  0
    3.1729    1.6890    0.8064 C   0  0  0  0  0  0  0  0  0  0  0  0
    4.6126    1.2024    1.0004 C   0  0  0  0  0  0  0  0  0  0  0  0
    5.4964    1.5015   -0.1342 N   0  0  0  0  0  0  0  0  0  0  0  0
    5.9019    2.9153   -0.2017 C   0  0  0  0  0  0  0  0  0  0  0  0
    7.0333    3.3916    0.6693 C   0  0  0  0  0  0  0  0  0  0  0  0
    7.2334    3.2635   -0.8111 C   0  0  0  0  0  0  0  0  0  0  0  0
    4.9404    0.9940   -1.3971 C   0  0  0  0  0  0  0  0  0  0  0  0
    3.5187    1.4856   -1.6809 C   0  0  0  0  0  0  0  0  0  0  0  0
    2.1271   -0.3466   -0.4580 C   0  0  0  0  0  0  0  0  0  0  0  0
   -3.9987    0.8452   -1.0936 C   0  0  0  0  0  0  0  0  0  0  0  0
   -3.2145    2.1299   -1.4193 C   0  0  0  0  0  0  0  0  0  0  0  0
   -1.5299    4.1873   -0.9380 H   0  0  0  0  0  0  0  0  0  0  0  0
   -3.1116    4.8042   -1.4607 H   0  0  0  0  0  0  0  0  0  0  0  0
   -2.6029    5.0205    0.2076 H   0  0  0  0  0  0  0  0  0  0  0  0
   -1.4570    2.4432    0.7570 H   0  0  0  0  0  0  0  0  0  0  0  0
   -2.7671    3.0620    1.7673 H   0  0  0  0  0  0  0  0  0  0  0  0
   -2.7538    0.6490    2.1477 H   0  0  0  0  0  0  0  0  0  0  0  0
   -5.7918   -0.1138    1.7241 H   0  0  0  0  0  0  0  0  0  0  0  0
   -6.8082   -2.2377    2.4422 H   0  0  0  0  0  0  0  0  0  0  0  0
   -5.7817   -4.3897    1.7594 H   0  0  0  0  0  0  0  0  0  0  0  0
   -3.7728   -4.4244    0.4017 H   0  0  0  0  0  0  0  0  0  0  0  0
   -2.5906   -1.8003   -1.5674 H   0  0  0  0  0  0  0  0  0  0  0  0
   -2.5629   -4.3587   -1.3494 H   0  0  0  0  0  0  0  0  0  0  0  0
   -1.1719   -3.5411   -2.0045 H   0  0  0  0  0  0  0  0  0  0  0  0
   -0.1539   -6.2464    0.5088 H   0  0  0  0  0  0  0  0  0  0  0  0
   -1.9111   -6.0728    0.3285 H   0  0  0  0  0  0  0  0  0  0  0  0
   -0.8630   -6.2172   -1.0993 H   0  0  0  0  0  0  0  0  0  0  0  0
    0.0256   -4.1664    1.8047 H   0  0  0  0  0  0  0  0  0  0  0  0
   -1.7067   -3.9457    1.7175 H   0  0  0  0  0  0  0  0  0  0  0  0
   -0.9690   -1.7291    2.0355 H   0  0  0  0  0  0  0  0  0  0  0  0
    0.5303   -2.0133    1.1409 H   0  0  0  0  0  0  0  0  0  0  0  0
    0.5347    0.2754    0.9502 H   0  0  0  0  0  0  0  0  0  0  0  0
    0.8470    1.6310   -1.8084 H   0  0  0  0  0  0  0  0  0  0  0  0
    0.7560    2.4014   -0.2166 H   0  0  0  0  0  0  0  0  0  0  0  0
    2.5690    1.3750    1.6659 H   0  0  0  0  0  0  0  0  0  0  0  0
    3.1481    2.7857    0.7918 H   0  0  0  0  0  0  0  0  0  0  0  0
    5.0226    1.6307    1.9231 H   0  0  0  0  0  0  0  0  0  0  0  0
    4.6117    0.1162    1.1558 H   0  0  0  0  0  0  0  0  0  0  0  0
    5.0986    3.6294   -0.3724 H   0  0  0  0  0  0  0  0  0  0  0  0
    7.5298    2.6713    1.3089 H   0  0  0  0  0  0  0  0  0  0  0  0
    6.9623    4.3871    1.0899 H   0  0  0  0  0  0  0  0  0  0  0  0
    7.2978    4.1714   -1.3982 H   0  0  0  0  0  0  0  0  0  0  0  0
    7.8636    2.4568   -1.1671 H   0  0  0  0  0  0  0  0  0  0  0  0
    4.9442   -0.1028   -1.3576 H   0  0  0  0  0  0  0  0  0  0  0  0
    5.5961    1.2625   -2.2343 H   0  0  0  0  0  0  0  0  0  0  0  0
    3.5200    2.5698   -1.8475 H   0  0  0  0  0  0  0  0  0  0  0  0
    3.1569    1.0281   -2.6097 H   0  0  0  0  0  0  0  0  0  0  0  0
    2.5868   -0.9737    0.3114 H   0  0  0  0  0  0  0  0  0  0  0  0
    2.1980   -0.8778   -1.4153 H   0  0  0  0  0  0  0  0  0  0  0  0
   -3.7959    0.1058   -1.8752 H   0  0  0  0  0  0  0  0  0  0  0  0
   -5.0744    1.0620   -1.1281 H   0  0  0  0  0  0  0  0  0  0  0  0
   -3.6877    2.6019   -2.2893 H   0  0  0  0  0  0  0  0  0  0  0  0
   -2.1864    1.8818   -1.7109 H   0  0  0  0  0  0  0  0  0  0  0  0
  1  2  1  0
  2  3  1  0
  3  4  1  0
  4  5  2  0
  5  6  1  0
  6  7  2  0
  7  8  1  0
  8  9  2  0
  9 10  1  0
 10 11  2  0
 11 12  1  0
 12 13  1  0
 13 14  1  0
 14 15  1  0
 14 16  1  0
 16 17  1  0
 17 18  1  0
 18 19  1  0
 19 20  2  0
 19 21  1  0
 21 22  1  0
 22 23  1  0
 23 24  1  0
 24 25  1  0
 25 26  1  0
 26 27  1  0
 27 28  1  0
 28 29  1  0
 26 30  1  0
 30 31  1  0
 23 32  1  0
  5 33  1  0
 33 34  1  0
 34  2  1  0
 11  6  1  0
 18 12  1  0
 32 21  1  0
 31 23  1  0
 29 27  1  0
  1 35  1  0
  1 36  1  0
  1 37  1  0
  3 38  1  0
  3 39  1  0
  4 40  1  0
  7 41  1  0
  8 42  1  0
  9 43  1  0
 10 44  1  0
 12 45  1  6
 13 46  1  0
 13 47  1  0
 15 48  1  0
 15 49  1  0
 15 50  1  0
 16 51  1  0
 16 52  1  0
 17 53  1  0
 17 54  1  0
 21 55  1  0
 22 56  1  0
 22 57  1  0
 24 58  1  0
 24 59  1  0
 25 60  1  0
 25 61  1  0
 27 62  1  0
 28 63  1  0
 28 64  1  0
 29 65  1  0
 29 66  1  0
 30 67  1  0
 30 68  1  0
 31 69  1  0
 31 70  1  0
 32 71  1  0
 32 72  1  0
 33 73  1  0
 33 74  1  0
 34 75  1  0
 34 76  1  0
M  END
$$$$
