
     RDKit          3D

 75 81  0  0  0  0  0  0  0  0999 V2000
   -0.9273    0.3434   -2.9163 O   0  0  0  0  0  0  0  0  0  0  0  0
   -0.5510    0.3710   -1.7377 C   0  0  0  0  0  0  0  0  0  0  0  0
   -1.5516    0.3912   -0.5491 C   0  0  0  0  0  0  0  0  0  0  0  0
   -1.6099   -0.8562    0.3734 C   0  0  0  0  0  0  0  0  0  0  0  0
   -3.1524   -0.6837    0.4676 C   0  0  0  0  0  0  0  0  0  0  0  0
   -3.6328    0.1294    1.6698 C   0  0  0  0  0  0  0  0  0  0  0  0
   -5.1302    0.4449    1.5230 C   0  0  0  0  0  0  0  0  0  0  0  0
   -5.8958   -0.5448    0.7341 N   0  0  0  0  0  0  0  0  0  0  0  0
   -7.3606   -0.4590    0.9828 C   0  0  0  0  0  0  0  0  0  0  0  0
   -8.1869   -1.3308    0.0100 C   0  0  0  0  0  0  0  0  0  0  0  0
   -8.1360   -0.7733   -1.4075 C   0  0  0  0  0  0  0  0  0  0  0  0
   -8.6537    0.5580   -1.4365 O   0  0  0  0  0  0  0  0  0  0  0  0
   -7.8905    1.4402   -0.6126 C   0  0  0  0  0  0  0  0  0  0  0  0
   -7.9221    0.9759    0.8393 C   0  0  0  0  0  0  0  0  0  0  0  0
   -5.3423   -1.8876    0.9496 C   0  0  0  0  0  0  0  0  0  0  0  0
   -3.9185   -2.0096    0.3827 C   0  0  0  0  0  0  0  0  0  0  0  0
   -3.0479    0.1147   -0.8702 C   0  0  0  0  0  0  0  0  0  0  0  0
    0.8134    0.3825   -1.4285 N   0  0  0  0  0  0  0  0  0  0  0  0
    1.7842    0.2755   -2.5188 C   0  0  0  0  0  0  0  0  0  0  0  0
    3.0384   -0.4654   -2.0667 C   0  0  0  0  0  0  0  0  0  0  0  0
    3.7149    0.2672   -0.8909 C   0  0  0  0  0  0  0  0  0  0  0  0
    2.7386    1.1288   -0.0761 C   0  0  0  0  0  0  0  0  0  0  0  0
    1.3468    0.5061   -0.0718 C   0  0  0  0  0  0  0  0  0  0  0  0
    4.6324   -0.6650   -0.0353 C   0  0  0  0  0  0  0  0  0  0  0  0
    5.8313   -0.2374   -0.9241 C   0  0  0  0  0  0  0  0  0  0  0  0
    7.2591   -0.0804   -0.2572 C   0  0  0  0  0  0  0  0  0  0  0  0
    8.3912   -0.7329   -0.7739 C   0  0  0  0  0  0  0  0  0  0  0  0
    9.6663   -0.6906   -0.3082 N   0  0  0  0  0  0  0  0  0  0  0  0
    9.7895    0.0874    0.7789 C   0  0  0  0  0  0  0  0  0  0  0  0
   10.9613    0.3069    1.4487 N   0  0  0  0  0  0  0  0  0  0  0  0
   10.7388    1.1478    2.5103 C   0  0  0  0  0  0  0  0  0  0  0  0
    9.3973    1.4713    2.5170 C   0  0  0  0  0  0  0  0  0  0  0  0
    8.7888    0.8020    1.4212 C   0  0  0  0  0  0  0  0  0  0  0  0
    7.4929    0.7117    0.8851 C   0  0  0  0  0  0  0  0  0  0  0  0
    5.0179    1.0395   -1.2690 C   0  0  0  0  0  0  0  0  0  0  0  0
   -1.4599    1.3284    0.0191 H   0  0  0  0  0  0  0  0  0  0  0  0
   -1.2858   -1.7806   -0.1212 H   0  0  0  0  0  0  0  0  0  0  0  0
   -1.0667   -0.7668    1.3191 H   0  0  0  0  0  0  0  0  0  0  0  0
   -3.4685   -0.4483    2.5889 H   0  0  0  0  0  0  0  0  0  0  0  0
   -3.0723    1.0643    1.7849 H   0  0  0  0  0  0  0  0  0  0  0  0
   -5.5464    0.5581    2.5324 H   0  0  0  0  0  0  0  0  0  0  0  0
   -5.2146    1.4179    1.0247 H   0  0  0  0  0  0  0  0  0  0  0  0
   -7.5590   -0.7995    2.0080 H   0  0  0  0  0  0  0  0  0  0  0  0
   -7.8848   -2.3807    0.0172 H   0  0  0  0  0  0  0  0  0  0  0  0
   -9.2313   -1.3192    0.3509 H   0  0  0  0  0  0  0  0  0  0  0  0
   -7.1204   -0.7846   -1.8195 H   0  0  0  0  0  0  0  0  0  0  0  0
   -8.7641   -1.3822   -2.0656 H   0  0  0  0  0  0  0  0  0  0  0  0
   -8.3424    2.4342   -0.6909 H   0  0  0  0  0  0  0  0  0  0  0  0
   -6.8682    1.5135   -1.0008 H   0  0  0  0  0  0  0  0  0  0  0  0
   -7.4053    1.6935    1.4837 H   0  0  0  0  0  0  0  0  0  0  0  0
   -8.9669    0.9654    1.1787 H   0  0  0  0  0  0  0  0  0  0  0  0
   -5.3396   -2.1242    2.0224 H   0  0  0  0  0  0  0  0  0  0  0  0
   -5.9316   -2.6723    0.4687 H   0  0  0  0  0  0  0  0  0  0  0  0
   -3.3933   -2.7865    0.9525 H   0  0  0  0  0  0  0  0  0  0  0  0
   -3.9616   -2.3591   -0.6561 H   0  0  0  0  0  0  0  0  0  0  0  0
   -3.2051   -0.4905   -1.7714 H   0  0  0  0  0  0  0  0  0  0  0  0
   -3.6717    1.0098   -0.9538 H   0  0  0  0  0  0  0  0  0  0  0  0
    1.3384   -0.2435   -3.3739 H   0  0  0  0  0  0  0  0  0  0  0  0
    2.0279    1.2953   -2.8393 H   0  0  0  0  0  0  0  0  0  0  0  0
    3.7253   -0.5812   -2.9127 H   0  0  0  0  0  0  0  0  0  0  0  0
    2.7481   -1.4768   -1.7535 H   0  0  0  0  0  0  0  0  0  0  0  0
    3.0922    1.2646    0.9523 H   0  0  0  0  0  0  0  0  0  0  0  0
    2.6739    2.1313   -0.5197 H   0  0  0  0  0  0  0  0  0  0  0  0
    0.6776    1.1158    0.5404 H   0  0  0  0  0  0  0  0  0  0  0  0
    1.3775   -0.5017    0.3579 H   0  0  0  0  0  0  0  0  0  0  0  0
    4.7241   -0.3696    1.0169 H   0  0  0  0  0  0  0  0  0  0  0  0
    4.3961   -1.7335   -0.0608 H   0  0  0  0  0  0  0  0  0  0  0  0
    5.8979   -0.8930   -1.8076 H   0  0  0  0  0  0  0  0  0  0  0  0
    8.2816   -1.3621   -1.6570 H   0  0  0  0  0  0  0  0  0  0  0  0
   11.8433   -0.1024    1.1783 H   0  0  0  0  0  0  0  0  0  0  0  0
   11.5497    1.4409    3.1635 H   0  0  0  0  0  0  0  0  0  0  0  0
    8.9089    2.1193    3.2329 H   0  0  0  0  0  0  0  0  0  0  0  0
    6.6779    1.2539    1.3546 H   0  0  0  0  0  0  0  0  0  0  0  0
    5.2329    1.9000   -0.6235 H   0  0  0  0  0  0  0  0  0  0  0  0
    5.0928    1.3734   -2.3087 H   0  0  0  0  0  0  0  0  0  0  0  0
  1  2  2  0
  2  3  1  0
  3  4  1  0
  4  5  1  0
  5  6  1  0
  6  7  1  0
  7  8  1  0
  8  9  1  0
  9 10  1  0
 10 11  1  0
 11 12  1  0
 12 13  1  0
 13 14  1  0
  8 15  1  0
 15 16  1  0
  5 17  1  0
  2 18  1  0
 18 19  1  0
 19 20  1  0
 20 21  1  0
 21 22  1  0
 22 23  1  0
 21 24  1  0
 24 25  1  0
 25 26  1  0
 26 27  2  0
 27 28  1  0
 28 29  2  0
 29 30  1  0
 30 31  1  0
 31 32  2  0
 32 33  1  0
 33 34  2  0
 25 35  1  0
 17  3  1  0
 23 18  1  0
 34 26  1  0
 16  5  1  0
 35 21  1  0
 14  9  1  0
 33 29  1  0
  3 36  1  0
  4 37  1  0
  4 38  1  0
  6 39  1  0
  6 40  1  0
  7 41  1  0
  7 42  1  0
  9 43  1  0
 10 44  1  0
 10 45  1  0
 11 46  1  0
 11 47  1  0
 13 48  1  0
 13 49  1  0
 14 50  1  0
 14 51  1  0
 15 52  1  0
 15 53  1  0
 16 54  1  0
 16 55  1  0
 17 56  1  0
 17 57  1  0
 19 58  1  0
 19 59  1  0
 20 60  1  0
 20 61  1  0
 22 62  1  0
 22 63  1  0
 23 64  1  0
 23 65  1  0
 24 66  1  0
 24 67  1  0
 25 68  1  0
 27 69  1  0
 30 70  1  0
 31 71  1  0
 32 72  1  0
 34 73  1  0
 35 74  1  0
 35 75  1  0
M  END
$$$$

     RDKit          3D

 75 81  0  0  0  0  0  0  0  0999 V2000
   -0.2014    2.2479    2.7645 O   0  0  0  0  0  0  0  0  0  0  0  0
   -0.1067    1.2907    1.9856 C   0  0  0  0  0  0  0  0  0  0  0  0
   -1.3535    0.5262    1.4633 C   0  0  0  0  0  0  0  0  0  0  0  0
   -2.7454    1.1666    1.7319 C   0  0  0  0  0  0  0  0  0  0  0  0
   -3.2074    0.6692    0.3288 C   0  0  0  0  0  0  0  0  0  0  0  0
   -3.8965   -0.7065    0.3706 C   0  0  0  0  0  0  0  0  0  0  0  0
   -4.7309   -0.9124   -0.8946 C   0  0  0  0  0  0  0  0  0  0  0  0
   -5.8204    0.0737   -1.0448 N   0  0  0  0  0  0  0  0  0  0  0  0
   -7.1545   -0.4518   -0.6563 C   0  0  0  0  0  0  0  0  0  0  0  0
   -7.5667   -1.6271   -1.5759 C   0  0  0  0  0  0  0  0  0  0  0  0
   -9.0778   -1.7884   -1.6966 C   0  0  0  0  0  0  0  0  0  0  0  0
   -9.7053   -1.4095   -0.4800 O   0  0  0  0  0  0  0  0  0  0  0  0
   -9.6110   -0.0056   -0.2458 C   0  0  0  0  0  0  0  0  0  0  0  0
   -8.2782    0.5996   -0.6903 C   0  0  0  0  0  0  0  0  0  0  0  0
   -5.4954    1.3656   -0.4103 C   0  0  0  0  0  0  0  0  0  0  0  0
   -4.0036    1.6883   -0.4957 C   0  0  0  0  0  0  0  0  0  0  0  0
   -1.6967    0.6380   -0.0474 C   0  0  0  0  0  0  0  0  0  0  0  0
    1.1464    0.8597    1.5388 N   0  0  0  0  0  0  0  0  0  0  0  0
    1.3603   -0.3150    0.6932 C   0  0  0  0  0  0  0  0  0  0  0  0
    2.7271   -0.9429    0.9495 C   0  0  0  0  0  0  0  0  0  0  0  0
    3.8568    0.0675    0.6695 C   0  0  0  0  0  0  0  0  0  0  0  0
    3.4243    1.5272    0.8765 C   0  0  0  0  0  0  0  0  0  0  0  0
    2.3328    1.6193    1.9364 C   0  0  0  0  0  0  0  0  0  0  0  0
    4.6012   -0.1471   -0.6858 C   0  0  0  0  0  0  0  0  0  0  0  0
    5.6189   -1.0541    0.0574 C   0  0  0  0  0  0  0  0  0  0  0  0
    7.1379   -1.0255   -0.3897 C   0  0  0  0  0  0  0  0  0  0  0  0
    7.8404   -2.2035   -0.6947 C   0  0  0  0  0  0  0  0  0  0  0  0
    9.1341   -2.3281   -1.0887 N   0  0  0  0  0  0  0  0  0  0  0  0
    9.7594   -1.1432   -1.1761 C   0  0  0  0  0  0  0  0  0  0  0  0
   11.0648   -0.9788   -1.5490 N   0  0  0  0  0  0  0  0  0  0  0  0
   11.3875    0.3551   -1.5345 C   0  0  0  0  0  0  0  0  0  0  0  0
   10.2644    1.0555   -1.1441 C   0  0  0  0  0  0  0  0  0  0  0  0
    9.2276    0.1113   -0.9150 C   0  0  0  0  0  0  0  0  0  0  0  0
    7.8824    0.1651   -0.5121 C   0  0  0  0  0  0  0  0  0  0  0  0
    5.2054   -0.3173    1.3596 C   0  0  0  0  0  0  0  0  0  0  0  0
   -1.3474   -0.5153    1.8169 H   0  0  0  0  0  0  0  0  0  0  0  0
   -3.2850    0.7581    2.5920 H   0  0  0  0  0  0  0  0  0  0  0  0
   -2.7195    2.2581    1.8391 H   0  0  0  0  0  0  0  0  0  0  0  0
   -4.5521   -0.7806    1.2479 H   0  0  0  0  0  0  0  0  0  0  0  0
   -3.1612   -1.5144    0.4622 H   0  0  0  0  0  0  0  0  0  0  0  0
   -5.0924   -1.9446   -0.9136 H   0  0  0  0  0  0  0  0  0  0  0  0
   -4.0772   -0.8187   -1.7715 H   0  0  0  0  0  0  0  0  0  0  0  0
   -7.0902   -0.8250    0.3761 H   0  0  0  0  0  0  0  0  0  0  0  0
   -7.1470   -1.5230   -2.5843 H   0  0  0  0  0  0  0  0  0  0  0  0
   -7.1549   -2.5563   -1.1626 H   0  0  0  0  0  0  0  0  0  0  0  0
   -9.4802   -1.1886   -2.5222 H   0  0  0  0  0  0  0  0  0  0  0  0
   -9.3280   -2.8336   -1.9060 H   0  0  0  0  0  0  0  0  0  0  0  0
  -10.4451    0.4972   -0.7479 H   0  0  0  0  0  0  0  0  0  0  0  0
   -9.7469    0.1442    0.8307 H   0  0  0  0  0  0  0  0  0  0  0  0
   -8.3811    0.9862   -1.7132 H   0  0  0  0  0  0  0  0  0  0  0  0
   -8.0717    1.4657   -0.0528 H   0  0  0  0  0  0  0  0  0  0  0  0
   -5.7959    1.3678    0.6458 H   0  0  0  0  0  0  0  0  0  0  0  0
   -6.0461    2.1639   -0.9206 H   0  0  0  0  0  0  0  0  0  0  0  0
   -3.6865    1.6624   -1.5467 H   0  0  0  0  0  0  0  0  0  0  0  0
   -3.8217    2.7105   -0.1440 H   0  0  0  0  0  0  0  0  0  0  0  0
   -1.3806   -0.2065   -0.6673 H   0  0  0  0  0  0  0  0  0  0  0  0
   -1.3248    1.5599   -0.5123 H   0  0  0  0  0  0  0  0  0  0  0  0
    0.5808   -1.0589    0.8750 H   0  0  0  0  0  0  0  0  0  0  0  0
    1.2769    0.0152   -0.3487 H   0  0  0  0  0  0  0  0  0  0  0  0
    2.8394   -1.8464    0.3396 H   0  0  0  0  0  0  0  0  0  0  0  0
    2.7703   -1.2625    1.9990 H   0  0  0  0  0  0  0  0  0  0  0  0
    4.2753    2.1576    1.1577 H   0  0  0  0  0  0  0  0  0  0  0  0
    3.0317    1.9319   -0.0659 H   0  0  0  0  0  0  0  0  0  0  0  0
    2.0681    2.6686    2.1043 H   0  0  0  0  0  0  0  0  0  0  0  0
    2.6794    1.2054    2.8906 H   0  0  0  0  0  0  0  0  0  0  0  0
    4.0261   -0.6414   -1.4752 H   0  0  0  0  0  0  0  0  0  0  0  0
    5.0364    0.7667   -1.1087 H   0  0  0  0  0  0  0  0  0  0  0  0
    5.2526   -2.0932    0.0806 H   0  0  0  0  0  0  0  0  0  0  0  0
    7.3248   -3.1608   -0.6204 H   0  0  0  0  0  0  0  0  0  0  0  0
   11.6759   -1.7441   -1.7927 H   0  0  0  0  0  0  0  0  0  0  0  0
   12.3818    0.6869   -1.8014 H   0  0  0  0  0  0  0  0  0  0  0  0
   10.1978    2.1301   -1.0355 H   0  0  0  0  0  0  0  0  0  0  0  0
    7.4237    1.1254   -0.2967 H   0  0  0  0  0  0  0  0  0  0  0  0
    5.1304   -0.9542    2.2467 H   0  0  0  0  0  0  0  0  0  0  0  0
    5.8440    0.5365    1.6162 H   0  0  0  0  0  0  0  0  0  0  0  0
  1  2  2  0
  2  3  1  0
  3  4  1  0
  4  5  1  0
  5  6  1  0
  6  7  1  0
  7  8  1  0
  8  9  1  0
  9 10  1  0
 10 11  1  0
 11 12  1  0
 12 13  1  0
 13 14  1  0
  8 15  1  0
 15 16  1  0
  5 17  1  0
  2 18  1  0
 18 19  1  0
 19 20  1  0
 20 21  1  0
 21 22  1  0
 22 23  1  0
 21 24  1  0
 24 25  1  0
 25 26  1  0
 26 27  2  0
 27 28  1  0
 28 29  2  0
 29 30  1  0
 30 31  1  0
 31 32  2  0
 32 33  1  0
 33 34  2  0
 25 35  1  0
 17  3  1  0
 23 18  1  0
 34 26  1  0
 16  5  1  0
 35 21  1  0
 14  9  1  0
 33 29  1  0
  3 36  1  0
  4 37  1  0
  4 38  1  0
  6 39  1  0
  6 40  1  0
  7 41  1  0
  7 42  1  0
  9 43  1  0
 10 44  1  0
 10 45  1  0
 11 46  1  0
 11 47  1  0
 13 48  1  0
 13 49  1  0
 14 50  1  0
 14 51  1  0
 15 52  1  0
 15 53  1  0
 16 54  1  0
 16 55  1  0
 17 56  1  0
 17 57  1  0
 19 58  1  0
 19 59  1  0
 20 60  1  0
 20 61  1  0
 22 62  1  0
 22 63  1  0
 23 64  1  0
 23 65  1  0
 24 66  1  0
 24 67  1  0
 25 68  1  0
 27 69  1  0
 30 70  1  0
 31 71  1  0
 32 72  1  0
 34 73  1  0
 35 74  1  0
 35 75  1  0
M  END
$$$$

     RDKit          3D

 75 81  0  0  0  0  0  0  0  0999 V2000
   -0.6923    1.2588   -1.6424 O   0  0  0  0  0  0  0  0  0  0  0  0
   -0.3176    0.2504   -1.0303 C   0  0  0  0  0  0  0  0  0  0  0  0
   -1.1228   -1.0800   -1.0626 C   0  0  0  0  0  0  0  0  0  0  0  0
   -1.8936   -1.4897    0.2189 C   0  0  0  0  0  0  0  0  0  0  0  0
   -3.2160   -0.9881   -0.4279 C   0  0  0  0  0  0  0  0  0  0  0  0
   -3.6169    0.4492   -0.0566 C   0  0  0  0  0  0  0  0  0  0  0  0
   -4.6961    0.4353    1.0283 C   0  0  0  0  0  0  0  0  0  0  0  0
   -5.9445   -0.2492    0.6255 N   0  0  0  0  0  0  0  0  0  0  0  0
   -7.0475    0.6943    0.3110 C   0  0  0  0  0  0  0  0  0  0  0  0
   -8.2849    0.0045   -0.3125 C   0  0  0  0  0  0  0  0  0  0  0  0
   -9.5570    0.8377   -0.1774 C   0  0  0  0  0  0  0  0  0  0  0  0
   -9.2420    2.2174   -0.0514 O   0  0  0  0  0  0  0  0  0  0  0  0
   -8.5761    2.5030    1.1788 C   0  0  0  0  0  0  0  0  0  0  0  0
   -7.5357    1.4484    1.5600 C   0  0  0  0  0  0  0  0  0  0  0  0
   -5.7076   -1.2448   -0.4384 C   0  0  0  0  0  0  0  0  0  0  0  0
   -4.3775   -1.9726   -0.2419 C   0  0  0  0  0  0  0  0  0  0  0  0
   -2.4875   -1.0861   -1.8007 C   0  0  0  0  0  0  0  0  0  0  0  0
    0.8614    0.2723   -0.2764 N   0  0  0  0  0  0  0  0  0  0  0  0
    1.7072    1.4633   -0.3135 C   0  0  0  0  0  0  0  0  0  0  0  0
    2.9541    1.1857   -1.1532 C   0  0  0  0  0  0  0  0  0  0  0  0
    3.6920   -0.0445   -0.5993 C   0  0  0  0  0  0  0  0  0  0  0  0
    2.7528   -1.2641   -0.5128 C   0  0  0  0  0  0  0  0  0  0  0  0
    1.5049   -0.9068    0.2972 C   0  0  0  0  0  0  0  0  0  0  0  0
    4.5540    0.2267    0.6732 C   0  0  0  0  0  0  0  0  0  0  0  0
    5.6945   -0.6113    0.0348 C   0  0  0  0  0  0  0  0  0  0  0  0
    7.1952   -0.1611    0.2664 C   0  0  0  0  0  0  0  0  0  0  0  0
    7.6577    1.1390    0.0007 C   0  0  0  0  0  0  0  0  0  0  0  0
    8.9137    1.6292    0.1639 N   0  0  0  0  0  0  0  0  0  0  0  0
    9.7666    0.7072    0.6383 C   0  0  0  0  0  0  0  0  0  0  0  0
   11.0910    0.9322    0.8940 N   0  0  0  0  0  0  0  0  0  0  0  0
   11.6738   -0.2161    1.3687 C   0  0  0  0  0  0  0  0  0  0  0  0
   10.7006   -1.1934    1.4164 C   0  0  0  0  0  0  0  0  0  0  0  0
    9.4880   -0.6146    0.9543 C   0  0  0  0  0  0  0  0  0  0  0  0
    8.1672   -1.0537    0.7614 C   0  0  0  0  0  0  0  0  0  0  0  0
    5.0301   -0.3376   -1.3410 C   0  0  0  0  0  0  0  0  0  0  0  0
   -0.4893   -1.8899   -1.4519 H   0  0  0  0  0  0  0  0  0  0  0  0
   -1.5965   -0.9804    1.1413 H   0  0  0  0  0  0  0  0  0  0  0  0
   -1.8565   -2.5704    0.4058 H   0  0  0  0  0  0  0  0  0  0  0  0
   -4.0032    0.9791   -0.9370 H   0  0  0  0  0  0  0  0  0  0  0  0
   -2.7538    1.0234    0.2983 H   0  0  0  0  0  0  0  0  0  0  0  0
   -4.8681    1.4677    1.3469 H   0  0  0  0  0  0  0  0  0  0  0  0
   -4.3060   -0.0871    1.9112 H   0  0  0  0  0  0  0  0  0  0  0  0
   -6.6746    1.4276   -0.4188 H   0  0  0  0  0  0  0  0  0  0  0  0
   -8.4763   -0.9755    0.1421 H   0  0  0  0  0  0  0  0  0  0  0  0
   -8.0919   -0.1788   -1.3770 H   0  0  0  0  0  0  0  0  0  0  0  0
  -10.1478    0.5188    0.6903 H   0  0  0  0  0  0  0  0  0  0  0  0
  -10.1889    0.7049   -1.0616 H   0  0  0  0  0  0  0  0  0  0  0  0
   -8.0898    3.4765    1.0549 H   0  0  0  0  0  0  0  0  0  0  0  0
   -9.3215    2.6138    1.9743 H   0  0  0  0  0  0  0  0  0  0  0  0
   -7.9910    0.7315    2.2573 H   0  0  0  0  0  0  0  0  0  0  0  0
   -6.7363    1.9397    2.1223 H   0  0  0  0  0  0  0  0  0  0  0  0
   -6.5052   -1.9954   -0.4194 H   0  0  0  0  0  0  0  0  0  0  0  0
   -5.7155   -0.7710   -1.4288 H   0  0  0  0  0  0  0  0  0  0  0  0
   -4.3030   -2.8110   -0.9441 H   0  0  0  0  0  0  0  0  0  0  0  0
   -4.3513   -2.4105    0.7650 H   0  0  0  0  0  0  0  0  0  0  0  0
   -2.6637   -0.2617   -2.4986 H   0  0  0  0  0  0  0  0  0  0  0  0
   -2.6648   -2.0203   -2.3486 H   0  0  0  0  0  0  0  0  0  0  0  0
    1.9813    1.7045    0.7203 H   0  0  0  0  0  0  0  0  0  0  0  0
    1.1681    2.3250   -0.7184 H   0  0  0  0  0  0  0  0  0  0  0  0
    3.6031    2.0692   -1.1524 H   0  0  0  0  0  0  0  0  0  0  0  0
    2.6619    0.9997   -2.1946 H   0  0  0  0  0  0  0  0  0  0  0  0
    3.2531   -2.1235   -0.0530 H   0  0  0  0  0  0  0  0  0  0  0  0
    2.4554   -1.5669   -1.5250 H   0  0  0  0  0  0  0  0  0  0  0  0
    1.7706   -0.6621    1.3320 H   0  0  0  0  0  0  0  0  0  0  0  0
    0.8310   -1.7638    0.3325 H   0  0  0  0  0  0  0  0  0  0  0  0
    4.8016    1.2833    0.8306 H   0  0  0  0  0  0  0  0  0  0  0  0
    4.1648   -0.1710    1.6154 H   0  0  0  0  0  0  0  0  0  0  0  0
    5.5761   -1.6734    0.3038 H   0  0  0  0  0  0  0  0  0  0  0  0
    6.9607    1.8822   -0.3849 H   0  0  0  0  0  0  0  0  0  0  0  0
   11.5445    1.8215    0.7453 H   0  0  0  0  0  0  0  0  0  0  0  0
   12.7235   -0.2371    1.6291 H   0  0  0  0  0  0  0  0  0  0  0  0
   10.8471   -2.2130    1.7476 H   0  0  0  0  0  0  0  0  0  0  0  0
    7.8999   -2.0802    0.9944 H   0  0  0  0  0  0  0  0  0  0  0  0
    5.4430    0.5236   -1.8801 H   0  0  0  0  0  0  0  0  0  0  0  0
    5.0204   -1.1901   -2.0277 H   0  0  0  0  0  0  0  0  0  0  0  0
  1  2  2  0
  2  3  1  0
  3  4  1  0
  4  5  1  0
  5  6  1  0
  6  7  1  0
  7  8  1  0
  8  9  1  0
  9 10  1  0
 10 11  1  0
 11 12  1  0
 12 13  1  0
 13 14  1  0
  8 15  1  0
 15 16  1  0
  5 17  1  0
  2 18  1  0
 18 19  1  0
 19 20  1  0
 20 21  1  0
 21 22  1  0
 22 23  1  0
 21 24  1  0
 24 25  1  0
 25 26  1  0
 26 27  2  0
 27 28  1  0
 28 29  2  0
 29 30  1  0
 30 31  1  0
 31 32  2  0
 32 33  1  0
 33 34  2  0
 25 35  1  0
 17  3  1  0
 23 18  1  0
 34 26  1  0
 16  5  1  0
 35 21  1  0
 14  9  1  0
 33 29  1  0
  3 36  1  0
  4 37  1  0
  4 38  1  0
  6 39  1  0
  6 40  1  0
  7 41  1  0
  7 42  1  0
  9 43  1  0
 10 44  1  0
 10 45  1  0
 11 46  1  0
 11 47  1  0
 13 48  1  0
 13 49  1  0
 14 50  1  0
 14 51  1  0
 15 52  1  0
 15 53  1  0
 16 54  1  0
 16 55  1  0
 17 56  1  0
 17 57  1  0
 19 58  1  0
 19 59  1  0
 20 60  1  0
 20 61  1  0
 22 62  1  0
 22 63  1  0
 23 64  1  0
 23 65  1  0
 24 66  1  0
 24 67  1  0
 25 68  1  0
 27 69  1  0
 30 70  1  0
 31 71  1  0
 32 72  1  0
 34 73  1  0
 35 74  1  0
 35 75  1  0
M  END
$$$$
