
     RDKit          3D

 82 87  0  0  0  0  0  0  0  0999 V2000
   -3.6014   -4.2787   -0.4660 C   0  0  0  0  0  0  0  0  0  0  0  0
   -3.9646   -2.8649   -0.4937 N   0  0  0  0  0  0  0  0  0  0  0  0
   -5.0991   -2.6040    0.4058 C   0  0  0  0  0  0  0  0  0  0  0  0
   -5.6913   -1.2321    0.2473 C   0  0  0  0  0  0  0  0  0  0  0  0
   -5.4227   -0.4362   -0.8042 C   0  0  0  0  0  0  0  0  0  0  0  0
   -6.0209    0.9118   -0.9275 C   0  0  0  0  0  0  0  0  0  0  0  0
   -7.4211    0.9699   -1.0809 C   0  0  0  0  0  0  0  0  0  0  0  0
   -8.0714    2.1820   -1.2950 C   0  0  0  0  0  0  0  0  0  0  0  0
   -7.3292    3.3518   -1.3665 C   0  0  0  0  0  0  0  0  0  0  0  0
   -5.9400    3.3098   -1.2121 C   0  0  0  0  0  0  0  0  0  0  0  0
   -5.2493    2.1047   -0.9755 C   0  0  0  0  0  0  0  0  0  0  0  0
   -3.8608    2.1048   -0.7802 N   0  0  0  0  0  0  0  0  0  0  0  0
   -3.3884    1.5421    0.4990 C   0  0  0  0  0  0  0  0  0  0  0  0
   -2.2984    2.4222    1.1094 C   0  0  0  0  0  0  0  0  0  0  0  0
   -1.1203    2.5639    0.1365 C   0  0  0  0  0  0  0  0  0  0  0  0
   -1.5685    2.7060   -1.3327 C   0  0  0  0  0  0  0  0  0  0  0  0
   -3.0330    3.1362   -1.4085 C   0  0  0  0  0  0  0  0  0  0  0  0
    0.0161    1.5143    0.3362 C   0  0  0  0  0  0  0  0  0  0  0  0
    1.0547    2.6552    0.1607 C   0  0  0  0  0  0  0  0  0  0  0  0
    2.3366    2.6184    1.0365 C   0  0  0  0  0  0  0  0  0  0  0  0
    2.5597    3.4673    1.9094 O   0  0  0  0  0  0  0  0  0  0  0  0
    3.2434    1.5796    0.8051 N   0  0  0  0  0  0  0  0  0  0  0  0
    3.1001    0.5886   -0.2624 C   0  0  0  0  0  0  0  0  0  0  0  0
    4.4515    0.0200   -0.6798 C   0  0  0  0  0  0  0  0  0  0  0  0
    5.1400   -0.6642    0.5101 C   0  0  0  0  0  0  0  0  0  0  0  0
    4.8148    0.0017    1.8622 C   0  0  0  0  0  0  0  0  0  0  0  0
    4.4195    1.4620    1.6680 C   0  0  0  0  0  0  0  0  0  0  0  0
    4.9995   -2.2225    0.5406 C   0  0  0  0  0  0  0  0  0  0  0  0
    6.4926   -2.2954    0.9526 C   0  0  0  0  0  0  0  0  0  0  0  0
    7.1799   -3.3421    0.1777 N   0  0  0  0  0  0  0  0  0  0  0  0
    8.6309   -3.2000    0.3498 C   0  0  0  0  0  0  0  0  0  0  0  0
    6.7694   -4.6616    0.6735 C   0  0  0  0  0  0  0  0  0  0  0  0
    6.6606   -0.9202    0.2554 C   0  0  0  0  0  0  0  0  0  0  0  0
   -0.0796    3.6260    0.6003 C   0  0  0  0  0  0  0  0  0  0  0  0
   -4.5170   -0.9061   -1.9151 C   0  0  0  0  0  0  0  0  0  0  0  0
   -4.2794   -2.4260   -1.8620 C   0  0  0  0  0  0  0  0  0  0  0  0
   -2.7158   -4.4597   -1.0851 H   0  0  0  0  0  0  0  0  0  0  0  0
   -4.4109   -4.9231   -0.8276 H   0  0  0  0  0  0  0  0  0  0  0  0
   -3.3416   -4.5894    0.5521 H   0  0  0  0  0  0  0  0  0  0  0  0
   -5.9033   -3.3355    0.2523 H   0  0  0  0  0  0  0  0  0  0  0  0
   -4.7533   -2.7079    1.4412 H   0  0  0  0  0  0  0  0  0  0  0  0
   -6.3574   -0.8971    1.0375 H   0  0  0  0  0  0  0  0  0  0  0  0
   -8.0101    0.0557   -1.0564 H   0  0  0  0  0  0  0  0  0  0  0  0
   -9.1505    2.2087   -1.4159 H   0  0  0  0  0  0  0  0  0  0  0  0
   -7.8256    4.3035   -1.5359 H   0  0  0  0  0  0  0  0  0  0  0  0
   -5.4044    4.2536   -1.2494 H   0  0  0  0  0  0  0  0  0  0  0  0
   -4.2024    1.4544    1.2294 H   0  0  0  0  0  0  0  0  0  0  0  0
   -2.9817    0.5400    0.3224 H   0  0  0  0  0  0  0  0  0  0  0  0
   -1.9719    1.9994    2.0668 H   0  0  0  0  0  0  0  0  0  0  0  0
   -2.7168    3.4119    1.3352 H   0  0  0  0  0  0  0  0  0  0  0  0
   -1.4608    1.7441   -1.8508 H   0  0  0  0  0  0  0  0  0  0  0  0
   -0.9436    3.4271   -1.8719 H   0  0  0  0  0  0  0  0  0  0  0  0
   -3.1648    4.1060   -0.9134 H   0  0  0  0  0  0  0  0  0  0  0  0
   -3.3087    3.2508   -2.4638 H   0  0  0  0  0  0  0  0  0  0  0  0
    0.0658    0.7145   -0.4088 H   0  0  0  0  0  0  0  0  0  0  0  0
    0.0419    1.0500    1.3301 H   0  0  0  0  0  0  0  0  0  0  0  0
    1.3102    2.8294   -0.8949 H   0  0  0  0  0  0  0  0  0  0  0  0
    2.4496   -0.2070    0.1186 H   0  0  0  0  0  0  0  0  0  0  0  0
    2.6117    1.0409   -1.1294 H   0  0  0  0  0  0  0  0  0  0  0  0
    4.3233   -0.6747   -1.5176 H   0  0  0  0  0  0  0  0  0  0  0  0
    5.0814    0.8409   -1.0475 H   0  0  0  0  0  0  0  0  0  0  0  0
    3.9767   -0.5228    2.3394 H   0  0  0  0  0  0  0  0  0  0  0  0
    5.6633   -0.0630    2.5527 H   0  0  0  0  0  0  0  0  0  0  0  0
    5.2307    2.0253    1.1918 H   0  0  0  0  0  0  0  0  0  0  0  0
    4.2233    1.9227    2.6418 H   0  0  0  0  0  0  0  0  0  0  0  0
    4.7602   -2.6655   -0.4354 H   0  0  0  0  0  0  0  0  0  0  0  0
    4.2949   -2.6284    1.2734 H   0  0  0  0  0  0  0  0  0  0  0  0
    6.6714   -2.2880    2.0347 H   0  0  0  0  0  0  0  0  0  0  0  0
    8.9327   -3.2609    1.4021 H   0  0  0  0  0  0  0  0  0  0  0  0
    9.1600   -3.9825   -0.2060 H   0  0  0  0  0  0  0  0  0  0  0  0
    8.9851   -2.2450   -0.0528 H   0  0  0  0  0  0  0  0  0  0  0  0
    6.9856   -4.7905    1.7406 H   0  0  0  0  0  0  0  0  0  0  0  0
    7.2843   -5.4549    0.1196 H   0  0  0  0  0  0  0  0  0  0  0  0
    5.6976   -4.8259    0.5195 H   0  0  0  0  0  0  0  0  0  0  0  0
    6.9259   -0.9627   -0.8098 H   0  0  0  0  0  0  0  0  0  0  0  0
    7.3497   -0.2266    0.7476 H   0  0  0  0  0  0  0  0  0  0  0  0
   -0.1040    4.5855    0.0746 H   0  0  0  0  0  0  0  0  0  0  0  0
   -0.0984    3.8305    1.6784 H   0  0  0  0  0  0  0  0  0  0  0  0
   -3.5501   -0.3942   -1.8503 H   0  0  0  0  0  0  0  0  0  0  0  0
   -4.9527   -0.6573   -2.8905 H   0  0  0  0  0  0  0  0  0  0  0  0
   -5.1630   -2.9548   -2.2452 H   0  0  0  0  0  0  0  0  0  0  0  0
   -3.4466   -2.6618   -2.5362 H   0  0  0  0  0  0  0  0  0  0  0  0
  1  2  1  0
  2  3  1  0
  3  4  1  0
  4  5  2  0
  5  6  1  0
  6  7  2  0
  7  8  1  0
  8  9  2  0
  9 10  1  0
 10 11  2  0
 11 12  1  0
 12 13  1  0
 13 14  1  0
 14 15  1  0
 15 16  1  0
 16 17  1  0
 15 18  1  0
 18 19  1  0
 19 20  1  0
 20 21  2  0
 20 22  1  0
 22 23  1  0
 23 24  1  0
 24 25  1  0
 25 26  1  0
 26 27  1  0
 25 28  1  0
 28 29  1  0
 29 30  1  0
 30 31  1  0
 30 32  1  0
 29 33  1  0
 19 34  1  0
  5 35  1  0
 35 36  1  0
 36  2  1  0
 11  6  1  0
 17 12  1  0
 27 22  1  0
 34 15  1  0
 33 25  1  0
  1 37  1  0
  1 38  1  0
  1 39  1  0
  3 40  1  0
  3 41  1  0
  4 42  1  0
  7 43  1  0
  8 44  1  0
  9 45  1  0
 10 46  1  0
 13 47  1  0
 13 48  1  0
 14 49  1  0
 14 50  1  0
 16 51  1  0
 16 52  1  0
 17 53  1  0
 17 54  1  0
 18 55  1  0
 18 56  1  0
 19 57  1  0
 23 58  1  0
 23 59  1  0
 24 60  1  0
 24 61  1  0
 26 62  1  0
 26 63  1  0
 27 64  1  0
 27 65  1  0
 28 66  1  0
 28 67  1  0
 29 68  1  0
 31 69  1  0
 31 70  1  0
 31 71  1  0
 32 72  1  0
 32 73  1  0
 32 74  1  0
 33 75  1  0
 33 76  1  0
 34 77  1  0
 34 78  1  0
 35 79  1  0
 35 80  1  0
 36 81  1  0
 36 82  1  0
M  END
$$$$

     RDKit          3D

 82 87  0  0  0  0  0  0  0  0999 V2000
   -4.2380   -0.2246    4.4107 C   0  0  0  0  0  0  0  0  0  0  0  0
   -4.4609   -0.1589    2.9693 N   0  0  0  0  0  0  0  0  0  0  0  0
   -5.6431   -0.9483    2.5914 C   0  0  0  0  0  0  0  0  0  0  0  0
   -6.0843   -0.7316    1.1714 C   0  0  0  0  0  0  0  0  0  0  0  0
   -5.6469    0.2940    0.4177 C   0  0  0  0  0  0  0  0  0  0  0  0
   -6.1017    0.4777   -0.9788 C   0  0  0  0  0  0  0  0  0  0  0  0
   -7.4720    0.7533   -1.1649 C   0  0  0  0  0  0  0  0  0  0  0  0
   -7.9844    1.0337   -2.4285 C   0  0  0  0  0  0  0  0  0  0  0  0
   -7.1317    1.0508   -3.5224 C   0  0  0  0  0  0  0  0  0  0  0  0
   -5.7712    0.7754   -3.3535 C   0  0  0  0  0  0  0  0  0  0  0  0
   -5.2197    0.4680   -2.0936 C   0  0  0  0  0  0  0  0  0  0  0  0
   -3.8597    0.1523   -1.9692 N   0  0  0  0  0  0  0  0  0  0  0  0
   -2.8873    0.7113   -2.9124 C   0  0  0  0  0  0  0  0  0  0  0  0
   -1.4794    0.5053   -2.3559 C   0  0  0  0  0  0  0  0  0  0  0  0
   -1.1734   -0.9965   -2.1867 C   0  0  0  0  0  0  0  0  0  0  0  0
   -2.4425   -1.8619   -2.1603 C   0  0  0  0  0  0  0  0  0  0  0  0
   -3.5486   -1.1597   -1.3740 C   0  0  0  0  0  0  0  0  0  0  0  0
   -0.1747   -1.2894   -1.0292 C   0  0  0  0  0  0  0  0  0  0  0  0
    0.9784   -1.4002   -2.0555 C   0  0  0  0  0  0  0  0  0  0  0  0
    1.9678   -0.2018   -2.1635 C   0  0  0  0  0  0  0  0  0  0  0  0
    1.8433    0.6888   -3.0137 O   0  0  0  0  0  0  0  0  0  0  0  0
    3.0386   -0.1758   -1.2637 N   0  0  0  0  0  0  0  0  0  0  0  0
    3.2359   -1.1495   -0.1887 C   0  0  0  0  0  0  0  0  0  0  0  0
    3.9615   -0.5250    0.9989 C   0  0  0  0  0  0  0  0  0  0  0  0
    5.3423    0.0159    0.5777 C   0  0  0  0  0  0  0  0  0  0  0  0
    5.4051    0.4146   -0.9049 C   0  0  0  0  0  0  0  0  0  0  0  0
    4.0397    0.8843   -1.3926 C   0  0  0  0  0  0  0  0  0  0  0  0
    5.9099    1.0899    1.5736 C   0  0  0  0  0  0  0  0  0  0  0  0
    6.6249   -0.0599    2.3108 C   0  0  0  0  0  0  0  0  0  0  0  0
    8.0175    0.1884    2.7148 N   0  0  0  0  0  0  0  0  0  0  0  0
    8.0362    0.6746    4.0963 C   0  0  0  0  0  0  0  0  0  0  0  0
    8.8040    1.0788    1.8640 C   0  0  0  0  0  0  0  0  0  0  0  0
    6.5547   -0.8805    1.0057 C   0  0  0  0  0  0  0  0  0  0  0  0
   -0.0976   -1.5590   -3.1594 C   0  0  0  0  0  0  0  0  0  0  0  0
   -4.6934    1.3162    0.9850 C   0  0  0  0  0  0  0  0  0  0  0  0
   -4.6055    1.2345    2.5196 C   0  0  0  0  0  0  0  0  0  0  0  0
   -3.3205    0.3092    4.6820 H   0  0  0  0  0  0  0  0  0  0  0  0
   -4.1036   -1.2634    4.7323 H   0  0  0  0  0  0  0  0  0  0  0  0
   -5.0685    0.2083    4.9800 H   0  0  0  0  0  0  0  0  0  0  0  0
   -6.4961   -0.7232    3.2449 H   0  0  0  0  0  0  0  0  0  0  0  0
   -5.4057   -2.0117    2.7153 H   0  0  0  0  0  0  0  0  0  0  0  0
   -6.7847   -1.4558    0.7651 H   0  0  0  0  0  0  0  0  0  0  0  0
   -8.1444    0.7737   -0.3100 H   0  0  0  0  0  0  0  0  0  0  0  0
   -9.0416    1.2494   -2.5535 H   0  0  0  0  0  0  0  0  0  0  0  0
   -7.5190    1.2726   -4.5131 H   0  0  0  0  0  0  0  0  0  0  0  0
   -5.1472    0.7762   -4.2422 H   0  0  0  0  0  0  0  0  0  0  0  0
   -2.9733    0.2347   -3.8966 H   0  0  0  0  0  0  0  0  0  0  0  0
   -3.0590    1.7873   -3.0377 H   0  0  0  0  0  0  0  0  0  0  0  0
   -1.4121    1.0138   -1.3853 H   0  0  0  0  0  0  0  0  0  0  0  0
   -0.7547    0.9896   -3.0180 H   0  0  0  0  0  0  0  0  0  0  0  0
   -2.7897   -2.0465   -3.1856 H   0  0  0  0  0  0  0  0  0  0  0  0
   -2.2408   -2.8461   -1.7212 H   0  0  0  0  0  0  0  0  0  0  0  0
   -3.2175   -1.0174   -0.3394 H   0  0  0  0  0  0  0  0  0  0  0  0
   -4.4260   -1.8184   -1.3621 H   0  0  0  0  0  0  0  0  0  0  0  0
   -0.3544   -2.2288   -0.4918 H   0  0  0  0  0  0  0  0  0  0  0  0
   -0.0638   -0.4990   -0.2797 H   0  0  0  0  0  0  0  0  0  0  0  0
    1.5369   -2.3416   -1.9492 H   0  0  0  0  0  0  0  0  0  0  0  0
    3.8166   -1.9802   -0.6062 H   0  0  0  0  0  0  0  0  0  0  0  0
    2.2749   -1.5477    0.1445 H   0  0  0  0  0  0  0  0  0  0  0  0
    3.3463    0.2977    1.3866 H   0  0  0  0  0  0  0  0  0  0  0  0
    4.0506   -1.2602    1.8066 H   0  0  0  0  0  0  0  0  0  0  0  0
    5.7130   -0.4513   -1.5062 H   0  0  0  0  0  0  0  0  0  0  0  0
    6.1546    1.1957   -1.0750 H   0  0  0  0  0  0  0  0  0  0  0  0
    3.6869    1.7377   -0.8015 H   0  0  0  0  0  0  0  0  0  0  0  0
    4.1113    1.2084   -2.4363 H   0  0  0  0  0  0  0  0  0  0  0  0
    6.5255    1.8475    1.0803 H   0  0  0  0  0  0  0  0  0  0  0  0
    5.1667    1.6225    2.1766 H   0  0  0  0  0  0  0  0  0  0  0  0
    6.0070   -0.5154    3.0975 H   0  0  0  0  0  0  0  0  0  0  0  0
    7.5198    1.6358    4.2002 H   0  0  0  0  0  0  0  0  0  0  0  0
    9.0660    0.7946    4.4516 H   0  0  0  0  0  0  0  0  0  0  0  0
    7.5591   -0.0471    4.7690 H   0  0  0  0  0  0  0  0  0  0  0  0
    8.7803    0.7829    0.8114 H   0  0  0  0  0  0  0  0  0  0  0  0
    8.4891    2.1255    1.9397 H   0  0  0  0  0  0  0  0  0  0  0  0
    9.8580    1.0357    2.1633 H   0  0  0  0  0  0  0  0  0  0  0  0
    7.4156   -0.8116    0.3315 H   0  0  0  0  0  0  0  0  0  0  0  0
    6.3325   -1.9445    1.1408 H   0  0  0  0  0  0  0  0  0  0  0  0
   -0.2513   -2.6065   -3.4496 H   0  0  0  0  0  0  0  0  0  0  0  0
    0.0625   -0.9863   -4.0782 H   0  0  0  0  0  0  0  0  0  0  0  0
   -5.0148    2.3282    0.7098 H   0  0  0  0  0  0  0  0  0  0  0  0
   -3.6923    1.1674    0.5650 H   0  0  0  0  0  0  0  0  0  0  0  0
   -3.7401    1.8275    2.8407 H   0  0  0  0  0  0  0  0  0  0  0  0
   -5.4958    1.6960    2.9685 H   0  0  0  0  0  0  0  0  0  0  0  0
  1  2  1  0
  2  3  1  0
  3  4  1  0
  4  5  2  0
  5  6  1  0
  6  7  2  0
  7  8  1  0
  8  9  2  0
  9 10  1  0
 10 11  2  0
 11 12  1  0
 12 13  1  0
 13 14  1  0
 14 15  1  0
 15 16  1  0
 16 17  1  0
 15 18  1  0
 18 19  1  0
 19 20  1  0
 20 21  2  0
 20 22  1  0
 22 23  1  0
 23 24  1  0
 24 25  1  0
 25 26  1  0
 26 27  1  0
 25 28  1  0
 28 29  1  0
 29 30  1  0
 30 31  1  0
 30 32  1  0
 29 33  1  0
 19 34  1  0
  5 35  1  0
 35 36  1  0
 36  2  1  0
 11  6  1  0
 17 12  1  0
 27 22  1  0
 34 15  1  0
 33 25  1  0
  1 37  1  0
  1 38  1  0
  1 39  1  0
  3 40  1  0
  3 41  1  0
  4 42  1  0
  7 43  1  0
  8 44  1  0
  9 45  1  0
 10 46  1  0
 13 47  1  0
 13 48  1  0
 14 49  1  0
 14 50  1  0
 16 51  1  0
 16 52  1  0
 17 53  1  0
 17 54  1  0
 18 55  1  0
 18 56  1  0
 19 57  1  0
 23 58  1  0
 23 59  1  0
 24 60  1  0
 24 61  1  0
 26 62  1  0
 26 63  1  0
 27 64  1  0
 27 65  1  0
 28 66  1  0
 28 67  1  0
 29 68  1  0
 31 69  1  0
 31 70  1  0
 31 71  1  0
 32 72  1  0
 32 73  1  0
 32 74  1  0
 33 75  1  0
 33 76  1  0
 34 77  1  0
 34 78  1  0
 35 79  1  0
 35 80  1  0
 36 81  1  0
 36 82  1  0
M  END
$$$$

     RDKit          3D

 82 87  0  0  0  0  0  0  0  0999 V2000
    6.2154    0.4280   -3.7053 C   0  0  0  0  0  0  0  0  0  0  0  0
    5.9243    0.2369   -2.2872 N   0  0  0  0  0  0  0  0  0  0  0  0
    5.4934    1.5043   -1.6742 C   0  0  0  0  0  0  0  0  0  0  0  0
    5.3979    1.4385   -0.1769 C   0  0  0  0  0  0  0  0  0  0  0  0
    5.9286    0.4366    0.5464 C   0  0  0  0  0  0  0  0  0  0  0  0
    5.8011    0.4090    2.0153 C   0  0  0  0  0  0  0  0  0  0  0  0
    6.9461    0.8165    2.7325 C   0  0  0  0  0  0  0  0  0  0  0  0
    6.9447    0.8903    4.1247 C   0  0  0  0  0  0  0  0  0  0  0  0
    5.7934    0.5650    4.8261 C   0  0  0  0  0  0  0  0  0  0  0  0
    4.6519    0.1641    4.1307 C   0  0  0  0  0  0  0  0  0  0  0  0
    4.6226    0.0681    2.7223 C   0  0  0  0  0  0  0  0  0  0  0  0
    3.3978   -0.3599    2.1737 N   0  0  0  0  0  0  0  0  0  0  0  0
    3.4398   -1.3272    1.0722 C   0  0  0  0  0  0  0  0  0  0  0  0
    2.0525   -1.9579    0.9206 C   0  0  0  0  0  0  0  0  0  0  0  0
    1.0146   -0.8558    0.6644 C   0  0  0  0  0  0  0  0  0  0  0  0
    1.0400    0.1791    1.8016 C   0  0  0  0  0  0  0  0  0  0  0  0
    2.4514    0.7488    1.9689 C   0  0  0  0  0  0  0  0  0  0  0  0
   -0.4044   -1.4055    0.3607 C   0  0  0  0  0  0  0  0  0  0  0  0
   -0.5177   -0.4309   -0.8402 C   0  0  0  0  0  0  0  0  0  0  0  0
   -1.3844    0.8496   -0.6645 C   0  0  0  0  0  0  0  0  0  0  0  0
   -0.8871    1.9830   -0.6290 O   0  0  0  0  0  0  0  0  0  0  0  0
   -2.7671    0.6796   -0.5424 N   0  0  0  0  0  0  0  0  0  0  0  0
   -3.4580   -0.6064   -0.6586 C   0  0  0  0  0  0  0  0  0  0  0  0
   -4.8575   -0.4338   -1.2402 C   0  0  0  0  0  0  0  0  0  0  0  0
   -5.7137    0.4941   -0.3548 C   0  0  0  0  0  0  0  0  0  0  0  0
   -4.8689    1.4872    0.4610 C   0  0  0  0  0  0  0  0  0  0  0  0
   -3.5989    1.8576   -0.2954 C   0  0  0  0  0  0  0  0  0  0  0  0
   -6.7759   -0.2346    0.5197 C   0  0  0  0  0  0  0  0  0  0  0  0
   -7.8711    0.0813   -0.5315 C   0  0  0  0  0  0  0  0  0  0  0  0
   -8.0378   -1.0534   -1.4679 N   0  0  0  0  0  0  0  0  0  0  0  0
   -8.8727   -0.6319   -2.6038 C   0  0  0  0  0  0  0  0  0  0  0  0
   -8.7356   -2.1529   -0.7828 C   0  0  0  0  0  0  0  0  0  0  0  0
   -6.9063    1.1409   -1.1226 C   0  0  0  0  0  0  0  0  0  0  0  0
    1.0245   -0.2731   -0.7775 C   0  0  0  0  0  0  0  0  0  0  0  0
    6.7364   -0.6511   -0.1164 C   0  0  0  0  0  0  0  0  0  0  0  0
    7.0894   -0.3082   -1.5756 C   0  0  0  0  0  0  0  0  0  0  0  0
    5.3327    0.8080   -4.2316 H   0  0  0  0  0  0  0  0  0  0  0  0
    6.4745   -0.5268   -4.1759 H   0  0  0  0  0  0  0  0  0  0  0  0
    7.0430    1.1276   -3.8692 H   0  0  0  0  0  0  0  0  0  0  0  0
    6.1762    2.3238   -1.9335 H   0  0  0  0  0  0  0  0  0  0  0  0
    4.5027    1.7628   -2.0671 H   0  0  0  0  0  0  0  0  0  0  0  0
    4.8638    2.2482    0.3124 H   0  0  0  0  0  0  0  0  0  0  0  0
    7.8514    1.0961    2.1972 H   0  0  0  0  0  0  0  0  0  0  0  0
    7.8379    1.2079    4.6550 H   0  0  0  0  0  0  0  0  0  0  0  0
    5.7763    0.6193    5.9107 H   0  0  0  0  0  0  0  0  0  0  0  0
    3.7579   -0.0979    4.6935 H   0  0  0  0  0  0  0  0  0  0  0  0
    3.7082   -0.8506    0.1253 H   0  0  0  0  0  0  0  0  0  0  0  0
    4.1633   -2.1227    1.2855 H   0  0  0  0  0  0  0  0  0  0  0  0
    1.7925   -2.5081    1.8340 H   0  0  0  0  0  0  0  0  0  0  0  0
    2.0679   -2.6844    0.0996 H   0  0  0  0  0  0  0  0  0  0  0  0
    0.7300   -0.3014    2.7388 H   0  0  0  0  0  0  0  0  0  0  0  0
    0.3374    0.9985    1.6185 H   0  0  0  0  0  0  0  0  0  0  0  0
    2.4457    1.4320    2.8274 H   0  0  0  0  0  0  0  0  0  0  0  0
    2.7300    1.3324    1.0845 H   0  0  0  0  0  0  0  0  0  0  0  0
   -0.4329   -2.4589    0.0556 H   0  0  0  0  0  0  0  0  0  0  0  0
   -1.1386   -1.2693    1.1610 H   0  0  0  0  0  0  0  0  0  0  0  0
   -0.7953   -0.9431   -1.7724 H   0  0  0  0  0  0  0  0  0  0  0  0
   -2.8864   -1.2917   -1.2886 H   0  0  0  0  0  0  0  0  0  0  0  0
   -3.5105   -1.0393    0.3470 H   0  0  0  0  0  0  0  0  0  0  0  0
   -4.7629   -0.0023   -2.2453 H   0  0  0  0  0  0  0  0  0  0  0  0
   -5.3236   -1.4176   -1.3605 H   0  0  0  0  0  0  0  0  0  0  0  0
   -5.4400    2.3908    0.7025 H   0  0  0  0  0  0  0  0  0  0  0  0
   -4.5860    1.0305    1.4189 H   0  0  0  0  0  0  0  0  0  0  0  0
   -3.0322    2.6016    0.2748 H   0  0  0  0  0  0  0  0  0  0  0  0
   -3.8395    2.2965   -1.2709 H   0  0  0  0  0  0  0  0  0  0  0  0
   -6.5501   -1.2794    0.7516 H   0  0  0  0  0  0  0  0  0  0  0  0
   -6.9764    0.2649    1.4776 H   0  0  0  0  0  0  0  0  0  0  0  0
   -8.8020    0.4863   -0.1187 H   0  0  0  0  0  0  0  0  0  0  0  0
   -9.8481   -0.2479   -2.2819 H   0  0  0  0  0  0  0  0  0  0  0  0
   -8.3827    0.1414   -3.2024 H   0  0  0  0  0  0  0  0  0  0  0  0
   -9.0435   -1.4743   -3.2843 H   0  0  0  0  0  0  0  0  0  0  0  0
   -8.1398   -2.5611    0.0388 H   0  0  0  0  0  0  0  0  0  0  0  0
   -9.7059   -1.8407   -0.3786 H   0  0  0  0  0  0  0  0  0  0  0  0
   -8.9041   -2.9867   -1.4743 H   0  0  0  0  0  0  0  0  0  0  0  0
   -7.1581    2.1545   -0.7825 H   0  0  0  0  0  0  0  0  0  0  0  0
   -6.7905    1.1988   -2.2086 H   0  0  0  0  0  0  0  0  0  0  0  0
    1.4095    0.7457   -0.8813 H   0  0  0  0  0  0  0  0  0  0  0  0
    1.5439   -0.8976   -1.5156 H   0  0  0  0  0  0  0  0  0  0  0  0
    6.1629   -1.5856   -0.0947 H   0  0  0  0  0  0  0  0  0  0  0  0
    7.6694   -0.8330    0.4299 H   0  0  0  0  0  0  0  0  0  0  0  0
    7.4369   -1.2270   -2.0642 H   0  0  0  0  0  0  0  0  0  0  0  0
    7.9258    0.4040   -1.5982 H   0  0  0  0  0  0  0  0  0  0  0  0
  1  2  1  0
  2  3  1  0
  3  4  1  0
  4  5  2  0
  5  6  1  0
  6  7  2  0
  7  8  1  0
  8  9  2  0
  9 10  1  0
 10 11  2  0
 11 12  1  0
 12 13  1  0
 13 14  1  0
 14 15  1  0
 15 16  1  0
 16 17  1  0
 15 18  1  0
 18 19  1  0
 19 20  1  0
 20 21  2  0
 20 22  1  0
 22 23  1  0
 23 24  1  0
 24 25  1  0
 25 26  1  0
 26 27  1  0
 25 28  1  0
 28 29  1  0
 29 30  1  0
 30 31  1  0
 30 32  1  0
 29 33  1  0
 19 34  1  0
  5 35  1  0
 35 36  1  0
 36  2  1  0
 11  6  1  0
 17 12  1  0
 27 22  1  0
 34 15  1  0
 33 25  1  0
  1 37  1  0
  1 38  1  0
  1 39  1  0
  3 40  1  0
  3 41  1  0
  4 42  1  0
  7 43  1  0
  8 44  1  0
  9 45  1  0
 10 46  1  0
 13 47  1  0
 13 48  1  0
 14 49  1  0
 14 50  1  0
 16 51  1  0
 16 52  1  0
 17 53  1  0
 17 54  1  0
 18 55  1  0
 18 56  1  0
 19 57  1  0
 23 58  1  0
 23 59  1  0
 24 60  1  0
 24 61  1  0
 26 62  1  0
 26 63  1  0
 27 64  1  0
 27 65  1  0
 28 66  1  0
 28 67  1  0
 29 68  1  0
 31 69  1  0
 31 70  1  0
 31 71  1  0
 32 72  1  0
 32 73  1  0
 32 74  1  0
 33 75  1  0
 33 76  1  0
 34 77  1  0
 34 78  1  0
 35 79  1  0
 35 80  1  0
 36 81  1  0
 36 82  1  0
M  END
$$$$
