
     RDKit          3D

 73 79  0  0  0  0  0  0  0  0999 V2000
   -0.2484   -3.2769   -3.2665 O   0  0  0  0  0  0  0  0  0  0  0  0
   -0.4280   -2.3191   -2.4928 C   0  0  0  0  0  0  0  0  0  0  0  0
   -1.7902   -1.6074   -2.5109 C   0  0  0  0  0  0  0  0  0  0  0  0
   -2.5712   -1.2873   -1.2197 C   0  0  0  0  0  0  0  0  0  0  0  0
   -3.0979    0.0165   -1.9017 C   0  0  0  0  0  0  0  0  0  0  0  0
   -3.0056    1.2862   -1.0538 C   0  0  0  0  0  0  0  0  0  0  0  0
   -4.1281    1.3047   -0.0116 C   0  0  0  0  0  0  0  0  0  0  0  0
   -5.4458    1.2272   -0.6599 N   0  0  0  0  0  0  0  0  0  0  0  0
   -6.5556    1.3328    0.3035 C   0  0  2  0  0  0  0  0  0  0  0  0
   -6.6975    2.7510    0.9193 C   0  0  0  0  0  0  0  0  0  0  0  0
   -7.8738    2.8807    1.7405 O   0  0  0  0  0  0  0  0  0  0  0  0
   -8.2433    1.6466    2.3706 C   0  0  0  0  0  0  0  0  0  0  0  0
   -7.0495    0.7141    2.5643 C   0  0  0  0  0  0  0  0  0  0  0  0
   -6.4649    0.3176    1.3177 O   0  0  0  0  0  0  0  0  0  0  0  0
   -5.5678   -0.0170   -1.4394 C   0  0  0  0  0  0  0  0  0  0  0  0
   -4.4941   -0.0954   -2.5283 C   0  0  0  0  0  0  0  0  0  0  0  0
   -1.9424   -0.1338   -2.9384 C   0  0  0  0  0  0  0  0  0  0  0  0
    0.5992   -1.9537   -1.5993 N   0  0  0  0  0  0  0  0  0  0  0  0
    1.8428   -2.7257   -1.6948 C   0  0  0  0  0  0  0  0  0  0  0  0
    2.6101   -2.7553   -0.3761 C   0  0  0  0  0  0  0  0  0  0  0  0
    2.8501   -1.3302    0.1240 C   0  0  0  0  0  0  0  0  0  0  0  0
    1.5126   -0.5961    0.2730 C   0  0  0  0  0  0  0  0  0  0  0  0
    0.7510   -0.6079   -1.0509 C   0  0  0  0  0  0  0  0  0  0  0  0
    3.9822   -0.5462   -0.6097 C   0  0  0  0  0  0  0  0  0  0  0  0
    4.4851   -0.0521    0.7737 C   0  0  0  0  0  0  0  0  0  0  0  0
    6.0433    0.1024    1.0111 C   0  0  0  0  0  0  0  0  0  0  0  0
    6.9659   -0.9263    0.7554 C   0  0  0  0  0  0  0  0  0  0  0  0
    8.3136   -0.9010    0.9215 N   0  0  0  0  0  0  0  0  0  0  0  0
    8.7507    0.2790    1.3893 C   0  0  0  0  0  0  0  0  0  0  0  0
   10.0606    0.5759    1.6469 N   0  0  0  0  0  0  0  0  0  0  0  0
   10.1619    1.8626    2.1134 C   0  0  0  0  0  0  0  0  0  0  0  0
    8.8902    2.3970    2.1540 C   0  0  0  0  0  0  0  0  0  0  0  0
    7.9898    1.3978    1.6959 C   0  0  0  0  0  0  0  0  0  0  0  0
    6.6018    1.3007    1.4997 C   0  0  0  0  0  0  0  0  0  0  0  0
    3.7461   -1.2670    1.3968 C   0  0  0  0  0  0  0  0  0  0  0  0
   -2.4511   -2.2161   -3.1565 H   0  0  0  0  0  0  0  0  0  0  0  0
   -1.9658   -1.1303   -0.3223 H   0  0  0  0  0  0  0  0  0  0  0  0
   -3.3346   -2.0296   -0.9622 H   0  0  0  0  0  0  0  0  0  0  0  0
   -2.0377    1.3523   -0.5440 H   0  0  0  0  0  0  0  0  0  0  0  0
   -3.0842    2.1728   -1.6965 H   0  0  0  0  0  0  0  0  0  0  0  0
   -3.9852    0.4790    0.6970 H   0  0  0  0  0  0  0  0  0  0  0  0
   -4.0308    2.2389    0.5511 H   0  0  0  0  0  0  0  0  0  0  0  0
   -7.4959    1.1420   -0.2318 H   0  0  0  0  0  0  0  0  0  0  0  0
   -5.8436    2.9979    1.5591 H   0  0  0  0  0  0  0  0  0  0  0  0
   -6.7617    3.5125    0.1350 H   0  0  0  0  0  0  0  0  0  0  0  0
   -9.0021    1.1710    1.7395 H   0  0  0  0  0  0  0  0  0  0  0  0
   -8.7057    1.8890    3.3320 H   0  0  0  0  0  0  0  0  0  0  0  0
   -7.3535   -0.1951    3.0916 H   0  0  0  0  0  0  0  0  0  0  0  0
   -6.2684    1.2021    3.1580 H   0  0  0  0  0  0  0  0  0  0  0  0
   -5.5010   -0.8973   -0.7877 H   0  0  0  0  0  0  0  0  0  0  0  0
   -6.5461   -0.0520   -1.9342 H   0  0  0  0  0  0  0  0  0  0  0  0
   -4.6448    0.7180   -3.2502 H   0  0  0  0  0  0  0  0  0  0  0  0
   -4.6072   -1.0345   -3.0826 H   0  0  0  0  0  0  0  0  0  0  0  0
   -2.2297    0.0060   -3.9866 H   0  0  0  0  0  0  0  0  0  0  0  0
   -1.0732    0.5052   -2.7583 H   0  0  0  0  0  0  0  0  0  0  0  0
    2.4478   -2.2693   -2.4879 H   0  0  0  0  0  0  0  0  0  0  0  0
    1.6317   -3.7575   -1.9962 H   0  0  0  0  0  0  0  0  0  0  0  0
    3.5561   -3.2918   -0.5151 H   0  0  0  0  0  0  0  0  0  0  0  0
    2.0312   -3.3150    0.3697 H   0  0  0  0  0  0  0  0  0  0  0  0
    0.9063   -1.0923    1.0418 H   0  0  0  0  0  0  0  0  0  0  0  0
    1.6560    0.4399    0.6003 H   0  0  0  0  0  0  0  0  0  0  0  0
   -0.2111   -0.1324   -0.8909 H   0  0  0  0  0  0  0  0  0  0  0  0
    1.2786   -0.0141   -1.8069 H   0  0  0  0  0  0  0  0  0  0  0  0
    3.6594    0.2471   -1.2906 H   0  0  0  0  0  0  0  0  0  0  0  0
    4.6921   -1.1851   -1.1486 H   0  0  0  0  0  0  0  0  0  0  0  0
    3.9695    0.8822    1.0488 H   0  0  0  0  0  0  0  0  0  0  0  0
    6.6046   -1.8815    0.3759 H   0  0  0  0  0  0  0  0  0  0  0  0
   10.8184   -0.0754    1.5050 H   0  0  0  0  0  0  0  0  0  0  0  0
   11.1241    2.2826    2.3739 H   0  0  0  0  0  0  0  0  0  0  0  0
    8.6372    3.3979    2.4782 H   0  0  0  0  0  0  0  0  0  0  0  0
    5.9638    2.1501    1.7255 H   0  0  0  0  0  0  0  0  0  0  0  0
    4.3764   -2.1518    1.5473 H   0  0  0  0  0  0  0  0  0  0  0  0
    3.2276   -1.0599    2.3385 H   0  0  0  0  0  0  0  0  0  0  0  0
  1  2  2  0
  2  3  1  0
  3  4  1  0
  4  5  1  0
  5  6  1  0
  6  7  1  0
  7  8  1  0
  8  9  1  0
  9 10  1  0
 10 11  1  0
 11 12  1  0
 12 13  1  0
 13 14  1  0
  8 15  1  0
 15 16  1  0
  5 17  1  0
  2 18  1  0
 18 19  1  0
 19 20  1  0
 20 21  1  0
 21 22  1  0
 22 23  1  0
 21 24  1  0
 24 25  1  0
 25 26  1  0
 26 27  2  0
 27 28  1  0
 28 29  2  0
 29 30  1  0
 30 31  1  0
 31 32  2  0
 32 33  1  0
 33 34  2  0
 25 35  1  0
 17  3  1  0
 23 18  1  0
 34 26  1  0
 16  5  1  0
 35 21  1  0
 14  9  1  0
 33 29  1  0
  3 36  1  0
  4 37  1  0
  4 38  1  0
  6 39  1  0
  6 40  1  0
  7 41  1  0
  7 42  1  0
  9 43  1  6
 10 44  1  0
 10 45  1  0
 12 46  1  0
 12 47  1  0
 13 48  1  0
 13 49  1  0
 15 50  1  0
 15 51  1  0
 16 52  1  0
 16 53  1  0
 17 54  1  0
 17 55  1  0
 19 56  1  0
 19 57  1  0
 20 58  1  0
 20 59  1  0
 22 60  1  0
 22 61  1  0
 23 62  1  0
 23 63  1  0
 24 64  1  0
 24 65  1  0
 25 66  1  0
 27 67  1  0
 30 68  1  0
 31 69  1  0
 32 70  1  0
 34 71  1  0
 35 72  1  0
 35 73  1  0
M  END
$$$$

     RDKit          3D

 73 79  0  0  0  0  0  0  0  0999 V2000
    1.1548    1.5977    1.8879 O   0  0  0  0  0  0  0  0  0  0  0  0
    0.7024    1.4240    0.7488 C   0  0  0  0  0  0  0  0  0  0  0  0
    1.5226    1.7737   -0.5264 C   0  0  0  0  0  0  0  0  0  0  0  0
    3.0096    2.1782   -0.3481 C   0  0  0  0  0  0  0  0  0  0  0  0
    3.4440    0.7585   -0.8113 C   0  0  0  0  0  0  0  0  0  0  0  0
    3.7299   -0.2405    0.3252 C   0  0  0  0  0  0  0  0  0  0  0  0
    5.2384   -0.4414    0.4811 C   0  0  0  0  0  0  0  0  0  0  0  0
    5.8140   -1.0676   -0.7175 N   0  0  0  0  0  0  0  0  0  0  0  0
    7.2853   -1.0378   -0.7406 C   0  0  2  0  0  0  0  0  0  0  0  0
    7.9540   -1.7712    0.4617 C   0  0  0  0  0  0  0  0  0  0  0  0
    8.1025   -0.9653    1.6355 O   0  0  0  0  0  0  0  0  0  0  0  0
    8.5760    0.3559    1.3520 C   0  0  0  0  0  0  0  0  0  0  0  0
    8.9005    0.5999   -0.1203 C   0  0  0  0  0  0  0  0  0  0  0  0
    7.7739    0.2964   -0.9409 O   0  0  0  0  0  0  0  0  0  0  0  0
    5.2251   -0.5764   -1.9735 C   0  0  0  0  0  0  0  0  0  0  0  0
    4.5794    0.8029   -1.8449 C   0  0  0  0  0  0  0  0  0  0  0  0
    2.0179    0.6032   -1.4141 C   0  0  0  0  0  0  0  0  0  0  0  0
   -0.5881    0.8961    0.5658 N   0  0  0  0  0  0  0  0  0  0  0  0
   -1.3187    1.0267   -0.6948 C   0  0  0  0  0  0  0  0  0  0  0  0
   -2.3339   -0.0964   -0.8949 C   0  0  0  0  0  0  0  0  0  0  0  0
   -3.2481   -0.2143    0.3315 C   0  0  0  0  0  0  0  0  0  0  0  0
   -2.4099   -0.4372    1.5923 C   0  0  0  0  0  0  0  0  0  0  0  0
   -1.4068    0.6997    1.7628 C   0  0  0  0  0  0  0  0  0  0  0  0
   -4.3667    0.8665    0.4559 C   0  0  0  0  0  0  0  0  0  0  0  0
   -5.3336   -0.1039   -0.2751 C   0  0  0  0  0  0  0  0  0  0  0  0
   -6.8542   -0.1450    0.1657 C   0  0  0  0  0  0  0  0  0  0  0  0
   -7.2642   -0.3290    1.4972 C   0  0  0  0  0  0  0  0  0  0  0  0
   -8.5317   -0.3788    1.9824 N   0  0  0  0  0  0  0  0  0  0  0  0
   -9.4557   -0.2276    1.0202 C   0  0  0  0  0  0  0  0  0  0  0  0
  -10.8067   -0.2375    1.2315 N   0  0  0  0  0  0  0  0  0  0  0  0
  -11.4644   -0.0578    0.0404 C   0  0  0  0  0  0  0  0  0  0  0  0
  -10.5126    0.0692   -0.9508 C   0  0  0  0  0  0  0  0  0  0  0  0
   -9.2359   -0.0376   -0.3363 C   0  0  0  0  0  0  0  0  0  0  0  0
   -7.8994    0.0039   -0.7681 C   0  0  0  0  0  0  0  0  0  0  0  0
   -4.3920   -1.2583    0.1620 C   0  0  0  0  0  0  0  0  0  0  0  0
    0.9958    2.5460   -1.1056 H   0  0  0  0  0  0  0  0  0  0  0  0
    3.3196    2.4651    0.6615 H   0  0  0  0  0  0  0  0  0  0  0  0
    3.3089    2.9882   -1.0260 H   0  0  0  0  0  0  0  0  0  0  0  0
    3.2615   -1.2100    0.1106 H   0  0  0  0  0  0  0  0  0  0  0  0
    3.3088    0.1044    1.2754 H   0  0  0  0  0  0  0  0  0  0  0  0
    5.4107   -1.0864    1.3496 H   0  0  0  0  0  0  0  0  0  0  0  0
    5.7004    0.5309    0.6884 H   0  0  0  0  0  0  0  0  0  0  0  0
    7.5931   -1.6125   -1.6243 H   0  0  0  0  0  0  0  0  0  0  0  0
    7.3964   -2.6757    0.7293 H   0  0  0  0  0  0  0  0  0  0  0  0
    8.9579   -2.1068    0.1718 H   0  0  0  0  0  0  0  0  0  0  0  0
    7.7941    1.0480    1.6813 H   0  0  0  0  0  0  0  0  0  0  0  0
    9.4590    0.5386    1.9724 H   0  0  0  0  0  0  0  0  0  0  0  0
    9.1612    1.6509   -0.2784 H   0  0  0  0  0  0  0  0  0  0  0  0
    9.7525   -0.0051   -0.4512 H   0  0  0  0  0  0  0  0  0  0  0  0
    5.9559   -0.5644   -2.7916 H   0  0  0  0  0  0  0  0  0  0  0  0
    4.4559   -1.2977   -2.2785 H   0  0  0  0  0  0  0  0  0  0  0  0
    5.3404    1.5336   -1.5418 H   0  0  0  0  0  0  0  0  0  0  0  0
    4.2097    1.1336   -2.8226 H   0  0  0  0  0  0  0  0  0  0  0  0
    1.5306   -0.3622   -1.2431 H   0  0  0  0  0  0  0  0  0  0  0  0
    1.9429    0.8253   -2.4858 H   0  0  0  0  0  0  0  0  0  0  0  0
   -1.8177    2.0027   -0.6729 H   0  0  0  0  0  0  0  0  0  0  0  0
   -0.6369    1.0360   -1.5470 H   0  0  0  0  0  0  0  0  0  0  0  0
   -2.9081    0.0913   -1.8092 H   0  0  0  0  0  0  0  0  0  0  0  0
   -1.7987   -1.0432   -1.0432 H   0  0  0  0  0  0  0  0  0  0  0  0
   -1.8708   -1.3899    1.5121 H   0  0  0  0  0  0  0  0  0  0  0  0
   -3.0441   -0.5025    2.4843 H   0  0  0  0  0  0  0  0  0  0  0  0
   -1.9229    1.6473    1.9591 H   0  0  0  0  0  0  0  0  0  0  0  0
   -0.7736    0.4866    2.6307 H   0  0  0  0  0  0  0  0  0  0  0  0
   -4.6520    1.0982    1.4891 H   0  0  0  0  0  0  0  0  0  0  0  0
   -4.1863    1.8124   -0.0636 H   0  0  0  0  0  0  0  0  0  0  0  0
   -5.2631    0.0459   -1.3646 H   0  0  0  0  0  0  0  0  0  0  0  0
   -6.5094   -0.4515    2.2732 H   0  0  0  0  0  0  0  0  0  0  0  0
  -11.2281   -0.3609    2.1403 H   0  0  0  0  0  0  0  0  0  0  0  0
  -12.5452   -0.0363    0.0028 H   0  0  0  0  0  0  0  0  0  0  0  0
  -10.7148    0.2221   -2.0028 H   0  0  0  0  0  0  0  0  0  0  0  0
   -7.6762    0.1505   -1.8209 H   0  0  0  0  0  0  0  0  0  0  0  0
   -4.6882   -1.7560    1.0933 H   0  0  0  0  0  0  0  0  0  0  0  0
   -4.2269   -2.0321   -0.5945 H   0  0  0  0  0  0  0  0  0  0  0  0
  1  2  2  0
  2  3  1  0
  3  4  1  0
  4  5  1  0
  5  6  1  0
  6  7  1  0
  7  8  1  0
  8  9  1  0
  9 10  1  0
 10 11  1  0
 11 12  1  0
 12 13  1  0
 13 14  1  0
  8 15  1  0
 15 16  1  0
  5 17  1  0
  2 18  1  0
 18 19  1  0
 19 20  1  0
 20 21  1  0
 21 22  1  0
 22 23  1  0
 21 24  1  0
 24 25  1  0
 25 26  1  0
 26 27  2  0
 27 28  1  0
 28 29  2  0
 29 30  1  0
 30 31  1  0
 31 32  2  0
 32 33  1  0
 33 34  2  0
 25 35  1  0
 17  3  1  0
 23 18  1  0
 34 26  1  0
 16  5  1  0
 35 21  1  0
 14  9  1  0
 33 29  1  0
  3 36  1  0
  4 37  1  0
  4 38  1  0
  6 39  1  0
  6 40  1  0
  7 41  1  0
  7 42  1  0
  9 43  1  6
 10 44  1  0
 10 45  1  0
 12 46  1  0
 12 47  1  0
 13 48  1  0
 13 49  1  0
 15 50  1  0
 15 51  1  0
 16 52  1  0
 16 53  1  0
 17 54  1  0
 17 55  1  0
 19 56  1  0
 19 57  1  0
 20 58  1  0
 20 59  1  0
 22 60  1  0
 22 61  1  0
 23 62  1  0
 23 63  1  0
 24 64  1  0
 24 65  1  0
 25 66  1  0
 27 67  1  0
 30 68  1  0
 31 69  1  0
 32 70  1  0
 34 71  1  0
 35 72  1  0
 35 73  1  0
M  END
$$$$

     RDKit          3D

 73 79  0  0  0  0  0  0  0  0999 V2000
   -0.3143    3.1112   -0.3262 O   0  0  0  0  0  0  0  0  0  0  0  0
   -0.1983    1.9123   -0.0396 C   0  0  0  0  0  0  0  0  0  0  0  0
   -1.3769    1.0965    0.5601 C   0  0  0  0  0  0  0  0  0  0  0  0
   -2.1215    0.1151   -0.3866 C   0  0  0  0  0  0  0  0  0  0  0  0
   -3.4570    0.4997    0.3215 C   0  0  0  0  0  0  0  0  0  0  0  0
   -4.6463    0.7310   -0.6188 C   0  0  0  0  0  0  0  0  0  0  0  0
   -5.5016   -0.5338   -0.7081 C   0  0  0  0  0  0  0  0  0  0  0  0
   -6.0412   -0.9791    0.5873 N   0  0  0  0  0  0  0  0  0  0  0  0
   -7.4887   -0.7733    0.7280 C   0  0  2  0  0  0  0  0  0  0  0  0
   -8.3185   -1.7417   -0.1584 C   0  0  0  0  0  0  0  0  0  0  0  0
   -9.7356   -1.6207    0.0668 O   0  0  0  0  0  0  0  0  0  0  0  0
  -10.1216   -0.2929    0.4467 C   0  0  0  0  0  0  0  0  0  0  0  0
   -9.1440    0.7651   -0.0597 C   0  0  0  0  0  0  0  0  0  0  0  0
   -7.8382    0.6023    0.5055 O   0  0  0  0  0  0  0  0  0  0  0  0
   -5.3206   -0.4169    1.7399 C   0  0  0  0  0  0  0  0  0  0  0  0
   -3.8115   -0.4291    1.4975 C   0  0  0  0  0  0  0  0  0  0  0  0
   -2.7424    1.8236    0.7262 C   0  0  0  0  0  0  0  0  0  0  0  0
    1.0177    1.2394   -0.2538 N   0  0  0  0  0  0  0  0  0  0  0  0
    2.1700    2.0515   -0.6473 C   0  0  0  0  0  0  0  0  0  0  0  0
    3.1729    1.2632   -1.4839 C   0  0  0  0  0  0  0  0  0  0  0  0
    3.5746   -0.0188   -0.7517 C   0  0  0  0  0  0  0  0  0  0  0  0
    2.3302   -0.8622   -0.4474 C   0  0  0  0  0  0  0  0  0  0  0  0
    1.3225   -0.0508    0.3643 C   0  0  0  0  0  0  0  0  0  0  0  0
    4.5758    0.1722    0.4295 C   0  0  0  0  0  0  0  0  0  0  0  0
    5.3674   -1.0581   -0.0909 C   0  0  0  0  0  0  0  0  0  0  0  0
    6.9476   -1.0497    0.0144 C   0  0  0  0  0  0  0  0  0  0  0  0
    7.6542   -2.1082    0.6098 C   0  0  0  0  0  0  0  0  0  0  0  0
    8.9972   -2.2330    0.7687 N   0  0  0  0  0  0  0  0  0  0  0  0
    9.6714   -1.1827    0.2738 C   0  0  0  0  0  0  0  0  0  0  0  0
   11.0322   -1.0500    0.3006 N   0  0  0  0  0  0  0  0  0  0  0  0
   11.3948    0.1364   -0.2865 C   0  0  0  0  0  0  0  0  0  0  0  0
   10.2410    0.7732   -0.6961 C   0  0  0  0  0  0  0  0  0  0  0  0
    9.1437   -0.0581   -0.3438 C   0  0  0  0  0  0  0  0  0  0  0  0
    7.7459    0.0043   -0.4739 C   0  0  0  0  0  0  0  0  0  0  0  0
    4.7063   -0.8093   -1.4735 C   0  0  0  0  0  0  0  0  0  0  0  0
   -1.0898    0.6282    1.5130 H   0  0  0  0  0  0  0  0  0  0  0  0
   -2.0640    0.4024   -1.4441 H   0  0  0  0  0  0  0  0  0  0  0  0
   -1.8221   -0.9342   -0.3085 H   0  0  0  0  0  0  0  0  0  0  0  0
   -4.3059    1.0201   -1.6201 H   0  0  0  0  0  0  0  0  0  0  0  0
   -5.2632    1.5622   -0.2532 H   0  0  0  0  0  0  0  0  0  0  0  0
   -6.2865   -0.3770   -1.4560 H   0  0  0  0  0  0  0  0  0  0  0  0
   -4.8799   -1.3499   -1.0981 H   0  0  0  0  0  0  0  0  0  0  0  0
   -7.7767   -0.9937    1.7653 H   0  0  0  0  0  0  0  0  0  0  0  0
   -8.0446   -2.7828    0.0430 H   0  0  0  0  0  0  0  0  0  0  0  0
   -8.1532   -1.5554   -1.2250 H   0  0  0  0  0  0  0  0  0  0  0  0
  -11.1261   -0.1128    0.0526 H   0  0  0  0  0  0  0  0  0  0  0  0
  -10.1767   -0.2695    1.5408 H   0  0  0  0  0  0  0  0  0  0  0  0
   -9.0458    0.7147   -1.1500 H   0  0  0  0  0  0  0  0  0  0  0  0
   -9.4947    1.7682    0.2003 H   0  0  0  0  0  0  0  0  0  0  0  0
   -5.5381   -1.0236    2.6269 H   0  0  0  0  0  0  0  0  0  0  0  0
   -5.6447    0.6088    1.9590 H   0  0  0  0  0  0  0  0  0  0  0  0
   -3.4938   -1.4577    1.2816 H   0  0  0  0  0  0  0  0  0  0  0  0
   -3.2892   -0.1282    2.4132 H   0  0  0  0  0  0  0  0  0  0  0  0
   -2.8988    2.6497    0.0210 H   0  0  0  0  0  0  0  0  0  0  0  0
   -2.9547    2.1952    1.7334 H   0  0  0  0  0  0  0  0  0  0  0  0
    2.6365    2.4155    0.2762 H   0  0  0  0  0  0  0  0  0  0  0  0
    1.8457    2.9292   -1.2164 H   0  0  0  0  0  0  0  0  0  0  0  0
    4.0470    1.8907   -1.6944 H   0  0  0  0  0  0  0  0  0  0  0  0
    2.7208    1.0088   -2.4511 H   0  0  0  0  0  0  0  0  0  0  0  0
    1.8633   -1.1761   -1.3900 H   0  0  0  0  0  0  0  0  0  0  0  0
    2.5863   -1.7761    0.1004 H   0  0  0  0  0  0  0  0  0  0  0  0
    0.4179   -0.6485    0.4890 H   0  0  0  0  0  0  0  0  0  0  0  0
    1.7109    0.1608    1.3674 H   0  0  0  0  0  0  0  0  0  0  0  0
    5.1321    1.1167    0.3961 H   0  0  0  0  0  0  0  0  0  0  0  0
    4.1637    0.0600    1.4369 H   0  0  0  0  0  0  0  0  0  0  0  0
    4.9648   -1.9808    0.3574 H   0  0  0  0  0  0  0  0  0  0  0  0
    7.0985   -2.9568    1.0083 H   0  0  0  0  0  0  0  0  0  0  0  0
   11.6521   -1.7393    0.6996 H   0  0  0  0  0  0  0  0  0  0  0  0
   12.4355    0.4218   -0.3609 H   0  0  0  0  0  0  0  0  0  0  0  0
   10.1935    1.7324   -1.1946 H   0  0  0  0  0  0  0  0  0  0  0  0
    7.2882    0.8657   -0.9511 H   0  0  0  0  0  0  0  0  0  0  0  0
    5.3096   -0.2040   -2.1610 H   0  0  0  0  0  0  0  0  0  0  0  0
    4.3950   -1.7132   -2.0068 H   0  0  0  0  0  0  0  0  0  0  0  0
  1  2  2  0
  2  3  1  0
  3  4  1  0
  4  5  1  0
  5  6  1  0
  6  7  1  0
  7  8  1  0
  8  9  1  0
  9 10  1  0
 10 11  1  0
 11 12  1  0
 12 13  1  0
 13 14  1  0
  8 15  1  0
 15 16  1  0
  5 17  1  0
  2 18  1  0
 18 19  1  0
 19 20  1  0
 20 21  1  0
 21 22  1  0
 22 23  1  0
 21 24  1  0
 24 25  1  0
 25 26  1  0
 26 27  2  0
 27 28  1  0
 28 29  2  0
 29 30  1  0
 30 31  1  0
 31 32  2  0
 32 33  1  0
 33 34  2  0
 25 35  1  0
 17  3  1  0
 23 18  1  0
 34 26  1  0
 16  5  1  0
 35 21  1  0
 14  9  1  0
 33 29  1  0
  3 36  1  0
  4 37  1  0
  4 38  1  0
  6 39  1  0
  6 40  1  0
  7 41  1  0
  7 42  1  0
  9 43  1  1
 10 44  1  0
 10 45  1  0
 12 46  1  0
 12 47  1  0
 13 48  1  0
 13 49  1  0
 15 50  1  0
 15 51  1  0
 16 52  1  0
 16 53  1  0
 17 54  1  0
 17 55  1  0
 19 56  1  0
 19 57  1  0
 20 58  1  0
 20 59  1  0
 22 60  1  0
 22 61  1  0
 23 62  1  0
 23 63  1  0
 24 64  1  0
 24 65  1  0
 25 66  1  0
 27 67  1  0
 30 68  1  0
 31 69  1  0
 32 70  1  0
 34 71  1  0
 35 72  1  0
 35 73  1  0
M  END
$$$$
