
     RDKit          3D

 78 83  0  0  0  0  0  0  0  0999 V2000
    7.3065    2.7671    3.1703 C   0  0  0  0  0  0  0  0  0  0  0  0
    6.5863    2.0676    2.1099 N   0  0  0  0  0  0  0  0  0  0  0  0
    5.6124    1.1241    2.6849 C   0  0  0  0  0  0  0  0  0  0  0  0
    5.0041    0.2032    1.6663 C   0  0  0  0  0  0  0  0  0  0  0  0
    5.5052    0.0487    0.4281 C   0  0  0  0  0  0  0  0  0  0  0  0
    4.8661   -0.8676   -0.5315 C   0  0  0  0  0  0  0  0  0  0  0  0
    5.4988   -2.1017   -0.7624 C   0  0  0  0  0  0  0  0  0  0  0  0
    4.9536   -3.0332   -1.6439 C   0  0  0  0  0  0  0  0  0  0  0  0
    3.7666   -2.7435   -2.3043 C   0  0  0  0  0  0  0  0  0  0  0  0
    3.1255   -1.5232   -2.0837 C   0  0  0  0  0  0  0  0  0  0  0  0
    3.6537   -0.5642   -1.1946 C   0  0  0  0  0  0  0  0  0  0  0  0
    2.9637    0.7840   -0.9974 C   0  0  1  0  0  0  0  0  0  0  0  0
    3.5189    1.8499   -1.9564 C   0  0  0  0  0  0  0  0  0  0  0  0
    2.5587    1.8098   -3.1402 C   0  0  0  0  0  0  0  0  0  0  0  0
    1.2156    1.5541   -2.4773 C   0  0  0  0  0  0  0  0  0  0  0  0
    1.5273    0.7691   -1.2952 N   0  0  0  0  0  0  0  0  0  0  0  0
    0.6060    0.2726   -0.3835 C   0  0  0  0  0  0  0  0  0  0  0  0
    0.9748   -0.2218    0.6874 O   0  0  0  0  0  0  0  0  0  0  0  0
   -0.8902    0.3753   -0.7983 C   0  0  0  0  0  0  0  0  0  0  0  0
   -1.9592   -0.0706    0.2366 C   0  0  0  0  0  0  0  0  0  0  0  0
   -2.7813   -0.6918   -0.9361 C   0  0  0  0  0  0  0  0  0  0  0  0
   -3.3892   -2.0533   -0.6237 C   0  0  0  0  0  0  0  0  0  0  0  0
   -4.5382   -1.8876    0.3821 C   0  0  0  0  0  0  0  0  0  0  0  0
   -5.2835   -0.6138    0.2717 N   0  0  0  0  0  0  0  0  0  0  0  0
   -6.6428   -0.7067    0.8684 C   0  0  0  0  0  0  0  0  0  0  0  0
   -6.5921   -1.2073    2.3300 C   0  0  0  0  0  0  0  0  0  0  0  0
   -7.9762   -1.2104    2.9635 C   0  0  0  0  0  0  0  0  0  0  0  0
   -8.5612    0.0860    2.9155 O   0  0  0  0  0  0  0  0  0  0  0  0
   -8.7317    0.5389    1.5776 C   0  0  0  0  0  0  0  0  0  0  0  0
   -7.3939    0.6419    0.8558 C   0  0  0  0  0  0  0  0  0  0  0  0
   -5.2607   -0.1242   -1.1093 C   0  0  0  0  0  0  0  0  0  0  0  0
   -3.8346    0.2392   -1.5584 C   0  0  0  0  0  0  0  0  0  0  0  0
   -1.4390   -0.7446   -1.7222 C   0  0  0  0  0  0  0  0  0  0  0  0
    6.7661    0.7593    0.0105 C   0  0  0  0  0  0  0  0  0  0  0  0
    7.5147    1.3677    1.2107 C   0  0  0  0  0  0  0  0  0  0  0  0
    7.8958    2.0841    3.7929 H   0  0  0  0  0  0  0  0  0  0  0  0
    7.9845    3.5152    2.7448 H   0  0  0  0  0  0  0  0  0  0  0  0
    6.6079    3.3087    3.8178 H   0  0  0  0  0  0  0  0  0  0  0  0
    6.0723    0.5056    3.4666 H   0  0  0  0  0  0  0  0  0  0  0  0
    4.8034    1.6987    3.1516 H   0  0  0  0  0  0  0  0  0  0  0  0
    4.1144   -0.3429    1.9745 H   0  0  0  0  0  0  0  0  0  0  0  0
    6.4214   -2.3480   -0.2412 H   0  0  0  0  0  0  0  0  0  0  0  0
    5.4517   -3.9847   -1.8068 H   0  0  0  0  0  0  0  0  0  0  0  0
    3.3331   -3.4678   -2.9886 H   0  0  0  0  0  0  0  0  0  0  0  0
    2.1970   -1.3293   -2.6147 H   0  0  0  0  0  0  0  0  0  0  0  0
    3.0702    1.1150    0.0399 H   0  0  0  0  0  0  0  0  0  0  0  0
    3.4539    2.8369   -1.4807 H   0  0  0  0  0  0  0  0  0  0  0  0
    4.5580    1.6911   -2.2589 H   0  0  0  0  0  0  0  0  0  0  0  0
    2.5676    2.7328   -3.7265 H   0  0  0  0  0  0  0  0  0  0  0  0
    2.8188    0.9807   -3.8082 H   0  0  0  0  0  0  0  0  0  0  0  0
    0.7525    2.4915   -2.1502 H   0  0  0  0  0  0  0  0  0  0  0  0
    0.5201    1.0197   -3.1295 H   0  0  0  0  0  0  0  0  0  0  0  0
   -1.1346    1.3779   -1.1775 H   0  0  0  0  0  0  0  0  0  0  0  0
   -1.5966   -0.8037    0.9678 H   0  0  0  0  0  0  0  0  0  0  0  0
   -2.4420    0.7437    0.7858 H   0  0  0  0  0  0  0  0  0  0  0  0
   -2.6434   -2.7457   -0.2151 H   0  0  0  0  0  0  0  0  0  0  0  0
   -3.7674   -2.5092   -1.5479 H   0  0  0  0  0  0  0  0  0  0  0  0
   -4.1124   -1.9422    1.3914 H   0  0  0  0  0  0  0  0  0  0  0  0
   -5.2047   -2.7514    0.2615 H   0  0  0  0  0  0  0  0  0  0  0  0
   -7.2323   -1.4261    0.2823 H   0  0  0  0  0  0  0  0  0  0  0  0
   -5.9352   -0.5477    2.9122 H   0  0  0  0  0  0  0  0  0  0  0  0
   -6.1858   -2.2221    2.3942 H   0  0  0  0  0  0  0  0  0  0  0  0
   -8.6388   -1.9307    2.4691 H   0  0  0  0  0  0  0  0  0  0  0  0
   -7.9013   -1.5026    4.0159 H   0  0  0  0  0  0  0  0  0  0  0  0
   -9.2067    1.5245    1.6182 H   0  0  0  0  0  0  0  0  0  0  0  0
   -9.4172   -0.1336    1.0482 H   0  0  0  0  0  0  0  0  0  0  0  0
   -7.5943    0.9840   -0.1637 H   0  0  0  0  0  0  0  0  0  0  0  0
   -6.7767    1.4024    1.3513 H   0  0  0  0  0  0  0  0  0  0  0  0
   -5.6876   -0.8785   -1.7836 H   0  0  0  0  0  0  0  0  0  0  0  0
   -5.8575    0.7819   -1.2438 H   0  0  0  0  0  0  0  0  0  0  0  0
   -3.8001    0.1747   -2.6530 H   0  0  0  0  0  0  0  0  0  0  0  0
   -3.6231    1.2839   -1.2984 H   0  0  0  0  0  0  0  0  0  0  0  0
   -1.4925   -0.4886   -2.7846 H   0  0  0  0  0  0  0  0  0  0  0  0
   -0.8963   -1.6940   -1.6299 H   0  0  0  0  0  0  0  0  0  0  0  0
    7.4468    0.0765   -0.5114 H   0  0  0  0  0  0  0  0  0  0  0  0
    6.5028    1.5579   -0.6943 H   0  0  0  0  0  0  0  0  0  0  0  0
    8.0574    0.5791    1.7499 H   0  0  0  0  0  0  0  0  0  0  0  0
    8.2656    2.0666    0.8218 H   0  0  0  0  0  0  0  0  0  0  0  0
  1  2  1  0
  2  3  1  0
  3  4  1  0
  4  5  2  0
  5  6  1  0
  6  7  2  0
  7  8  1  0
  8  9  2  0
  9 10  1  0
 10 11  2  0
 11 12  1  0
 12 13  1  0
 13 14  1  0
 14 15  1  0
 15 16  1  0
 16 17  1  0
 17 18  2  0
 17 19  1  0
 19 20  1  0
 20 21  1  0
 21 22  1  0
 22 23  1  0
 23 24  1  0
 24 25  1  0
 25 26  1  0
 26 27  1  0
 27 28  1  0
 28 29  1  0
 29 30  1  0
 24 31  1  0
 31 32  1  0
 21 33  1  0
  5 34  1  0
 34 35  1  0
 35  2  1  0
 11  6  1  0
 16 12  1  0
 33 19  1  0
 32 21  1  0
 30 25  1  0
  1 36  1  0
  1 37  1  0
  1 38  1  0
  3 39  1  0
  3 40  1  0
  4 41  1  0
  7 42  1  0
  8 43  1  0
  9 44  1  0
 10 45  1  0
 12 46  1  1
 13 47  1  0
 13 48  1  0
 14 49  1  0
 14 50  1  0
 15 51  1  0
 15 52  1  0
 19 53  1  0
 20 54  1  0
 20 55  1  0
 22 56  1  0
 22 57  1  0
 23 58  1  0
 23 59  1  0
 25 60  1  0
 26 61  1  0
 26 62  1  0
 27 63  1  0
 27 64  1  0
 29 65  1  0
 29 66  1  0
 30 67  1  0
 30 68  1  0
 31 69  1  0
 31 70  1  0
 32 71  1  0
 32 72  1  0
 33 73  1  0
 33 74  1  0
 34 75  1  0
 34 76  1  0
 35 77  1  0
 35 78  1  0
M  END
$$$$

     RDKit          3D

 78 83  0  0  0  0  0  0  0  0999 V2000
   -8.0220    1.9122    1.3505 C   0  0  0  0  0  0  0  0  0  0  0  0
   -6.8482    1.3611    2.0265 N   0  0  0  0  0  0  0  0  0  0  0  0
   -6.8365   -0.1089    1.9774 C   0  0  0  0  0  0  0  0  0  0  0  0
   -6.2840   -0.7068    0.7128 C   0  0  0  0  0  0  0  0  0  0  0  0
   -5.5823    0.0073   -0.1841 C   0  0  0  0  0  0  0  0  0  0  0  0
   -5.0561   -0.6149   -1.4075 C   0  0  0  0  0  0  0  0  0  0  0  0
   -5.8780   -0.5939   -2.5464 C   0  0  0  0  0  0  0  0  0  0  0  0
   -5.4486   -1.1582   -3.7457 C   0  0  0  0  0  0  0  0  0  0  0  0
   -4.1934   -1.7501   -3.8186 C   0  0  0  0  0  0  0  0  0  0  0  0
   -3.3692   -1.7816   -2.6920 C   0  0  0  0  0  0  0  0  0  0  0  0
   -3.7793   -1.2178   -1.4672 C   0  0  0  0  0  0  0  0  0  0  0  0
   -2.8877   -1.2905   -0.2316 C   0  0  1  0  0  0  0  0  0  0  0  0
   -3.1013   -2.5946    0.5538 C   0  0  0  0  0  0  0  0  0  0  0  0
   -2.0027   -3.5178    0.0389 C   0  0  0  0  0  0  0  0  0  0  0  0
   -0.8380   -2.5679   -0.1876 C   0  0  0  0  0  0  0  0  0  0  0  0
   -1.4538   -1.2984   -0.5359 N   0  0  0  0  0  0  0  0  0  0  0  0
   -0.7766   -0.1232   -0.8309 C   0  0  0  0  0  0  0  0  0  0  0  0
   -1.3773    0.9548   -0.9007 O   0  0  0  0  0  0  0  0  0  0  0  0
    0.7555   -0.2526   -1.0619 C   0  0  0  0  0  0  0  0  0  0  0  0
    1.6697   -0.2216    0.1910 C   0  0  0  0  0  0  0  0  0  0  0  0
    2.7119    0.5972   -0.6278 C   0  0  0  0  0  0  0  0  0  0  0  0
    3.7710   -0.2507   -1.3562 C   0  0  0  0  0  0  0  0  0  0  0  0
    5.1036   -0.1844   -0.6072 C   0  0  0  0  0  0  0  0  0  0  0  0
    5.6419    1.1814   -0.6105 N   0  0  0  0  0  0  0  0  0  0  0  0
    6.8280    1.4079    0.2383 C   0  0  0  0  0  0  0  0  0  0  0  0
    8.0246    0.5058   -0.1288 C   0  0  0  0  0  0  0  0  0  0  0  0
    8.2523   -0.5676    0.9230 C   0  0  0  0  0  0  0  0  0  0  0  0
    8.5194   -0.0253    2.2169 O   0  0  0  0  0  0  0  0  0  0  0  0
    7.8580    1.2054    2.5113 C   0  0  0  0  0  0  0  0  0  0  0  0
    6.5490    1.3697    1.7535 C   0  0  0  0  0  0  0  0  0  0  0  0
    4.6150    2.2291   -0.4916 C   0  0  0  0  0  0  0  0  0  0  0  0
    3.3352    1.7402    0.1847 C   0  0  0  0  0  0  0  0  0  0  0  0
    1.5198    1.0111   -1.5447 C   0  0  0  0  0  0  0  0  0  0  0  0
   -5.2901    1.4702    0.0304 C   0  0  0  0  0  0  0  0  0  0  0  0
   -5.5936    1.9054    1.4760 C   0  0  0  0  0  0  0  0  0  0  0  0
   -8.0186    3.0065    1.4078 H   0  0  0  0  0  0  0  0  0  0  0  0
   -8.9380    1.5798    1.8518 H   0  0  0  0  0  0  0  0  0  0  0  0
   -8.0916    1.6247    0.2961 H   0  0  0  0  0  0  0  0  0  0  0  0
   -7.8459   -0.5010    2.1532 H   0  0  0  0  0  0  0  0  0  0  0  0
   -6.2279   -0.4772    2.8131 H   0  0  0  0  0  0  0  0  0  0  0  0
   -6.4702   -1.7655    0.5542 H   0  0  0  0  0  0  0  0  0  0  0  0
   -6.8608   -0.1295   -2.5014 H   0  0  0  0  0  0  0  0  0  0  0  0
   -6.0915   -1.1303   -4.6211 H   0  0  0  0  0  0  0  0  0  0  0  0
   -3.8511   -2.1861   -4.7534 H   0  0  0  0  0  0  0  0  0  0  0  0
   -2.3920   -2.2488   -2.7834 H   0  0  0  0  0  0  0  0  0  0  0  0
   -3.0745   -0.4287    0.4178 H   0  0  0  0  0  0  0  0  0  0  0  0
   -4.0985   -3.0309    0.4436 H   0  0  0  0  0  0  0  0  0  0  0  0
   -2.9329   -2.4069    1.6221 H   0  0  0  0  0  0  0  0  0  0  0  0
   -1.7579   -4.3197    0.7411 H   0  0  0  0  0  0  0  0  0  0  0  0
   -2.3098   -3.9786   -0.9067 H   0  0  0  0  0  0  0  0  0  0  0  0
   -0.2613   -2.4253    0.7324 H   0  0  0  0  0  0  0  0  0  0  0  0
   -0.1685   -2.9105   -0.9808 H   0  0  0  0  0  0  0  0  0  0  0  0
    0.9870   -1.1007   -1.7224 H   0  0  0  0  0  0  0  0  0  0  0  0
    1.2304    0.3196    1.0387 H   0  0  0  0  0  0  0  0  0  0  0  0
    2.0075   -1.1983    0.5504 H   0  0  0  0  0  0  0  0  0  0  0  0
    3.4503   -1.2952   -1.4463 H   0  0  0  0  0  0  0  0  0  0  0  0
    3.9177    0.1188   -2.3797 H   0  0  0  0  0  0  0  0  0  0  0  0
    5.8070   -0.8608   -1.1043 H   0  0  0  0  0  0  0  0  0  0  0  0
    4.9521   -0.5605    0.4105 H   0  0  0  0  0  0  0  0  0  0  0  0
    7.1711    2.4261    0.0019 H   0  0  0  0  0  0  0  0  0  0  0  0
    7.9154    0.0616   -1.1243 H   0  0  0  0  0  0  0  0  0  0  0  0
    8.9231    1.1361   -0.1788 H   0  0  0  0  0  0  0  0  0  0  0  0
    7.3878   -1.2358    1.0019 H   0  0  0  0  0  0  0  0  0  0  0  0
    9.1107   -1.1886    0.6468 H   0  0  0  0  0  0  0  0  0  0  0  0
    8.5462    2.0271    2.2820 H   0  0  0  0  0  0  0  0  0  0  0  0
    7.6762    1.2296    3.5906 H   0  0  0  0  0  0  0  0  0  0  0  0
    5.8934    0.5321    2.0142 H   0  0  0  0  0  0  0  0  0  0  0  0
    6.0436    2.2883    2.0717 H   0  0  0  0  0  0  0  0  0  0  0  0
    4.3724    2.5706   -1.5061 H   0  0  0  0  0  0  0  0  0  0  0  0
    4.9928    3.1141    0.0340 H   0  0  0  0  0  0  0  0  0  0  0  0
    3.5695    1.3982    1.2009 H   0  0  0  0  0  0  0  0  0  0  0  0
    2.6319    2.5737    0.2965 H   0  0  0  0  0  0  0  0  0  0  0  0
    1.0412    1.9575   -1.2649 H   0  0  0  0  0  0  0  0  0  0  0  0
    1.7250    1.0453   -2.6192 H   0  0  0  0  0  0  0  0  0  0  0  0
   -4.2380    1.6907   -0.1854 H   0  0  0  0  0  0  0  0  0  0  0  0
   -5.8933    2.0617   -0.6694 H   0  0  0  0  0  0  0  0  0  0  0  0
   -5.5989    3.0009    1.5362 H   0  0  0  0  0  0  0  0  0  0  0  0
   -4.7674    1.5839    2.1252 H   0  0  0  0  0  0  0  0  0  0  0  0
  1  2  1  0
  2  3  1  0
  3  4  1  0
  4  5  2  0
  5  6  1  0
  6  7  2  0
  7  8  1  0
  8  9  2  0
  9 10  1  0
 10 11  2  0
 11 12  1  0
 12 13  1  0
 13 14  1  0
 14 15  1  0
 15 16  1  0
 16 17  1  0
 17 18  2  0
 17 19  1  0
 19 20  1  0
 20 21  1  0
 21 22  1  0
 22 23  1  0
 23 24  1  0
 24 25  1  0
 25 26  1  0
 26 27  1  0
 27 28  1  0
 28 29  1  0
 29 30  1  0
 24 31  1  0
 31 32  1  0
 21 33  1  0
  5 34  1  0
 34 35  1  0
 35  2  1  0
 11  6  1  0
 16 12  1  0
 33 19  1  0
 32 21  1  0
 30 25  1  0
  1 36  1  0
  1 37  1  0
  1 38  1  0
  3 39  1  0
  3 40  1  0
  4 41  1  0
  7 42  1  0
  8 43  1  0
  9 44  1  0
 10 45  1  0
 12 46  1  1
 13 47  1  0
 13 48  1  0
 14 49  1  0
 14 50  1  0
 15 51  1  0
 15 52  1  0
 19 53  1  0
 20 54  1  0
 20 55  1  0
 22 56  1  0
 22 57  1  0
 23 58  1  0
 23 59  1  0
 25 60  1  0
 26 61  1  0
 26 62  1  0
 27 63  1  0
 27 64  1  0
 29 65  1  0
 29 66  1  0
 30 67  1  0
 30 68  1  0
 31 69  1  0
 31 70  1  0
 32 71  1  0
 32 72  1  0
 33 73  1  0
 33 74  1  0
 34 75  1  0
 34 76  1  0
 35 77  1  0
 35 78  1  0
M  END
$$$$

     RDKit          3D

 78 83  0  0  0  0  0  0  0  0999 V2000
   -7.8355   -1.5617   -0.6243 C   0  0  0  0  0  0  0  0  0  0  0  0
   -6.5101   -1.0357   -0.3113 N   0  0  0  0  0  0  0  0  0  0  0  0
   -6.6138    0.2530    0.3875 C   0  0  0  0  0  0  0  0  0  0  0  0
   -5.2960    0.9620    0.5305 C   0  0  0  0  0  0  0  0  0  0  0  0
   -4.1938    0.6018   -0.1519 C   0  0  0  0  0  0  0  0  0  0  0  0
   -2.9625    1.3947   -0.0272 C   0  0  0  0  0  0  0  0  0  0  0  0
   -2.8973    2.5335   -0.8584 C   0  0  0  0  0  0  0  0  0  0  0  0
   -1.8193    3.4144   -0.8071 C   0  0  0  0  0  0  0  0  0  0  0  0
   -0.7891    3.1804    0.0892 C   0  0  0  0  0  0  0  0  0  0  0  0
   -0.8369    2.0595    0.9183 C   0  0  0  0  0  0  0  0  0  0  0  0
   -1.9067    1.1307    0.8696 C   0  0  0  0  0  0  0  0  0  0  0  0
   -1.7996   -0.0579    1.8125 C   0  0  1  0  0  0  0  0  0  0  0  0
   -2.7055    0.0453    3.0512 C   0  0  0  0  0  0  0  0  0  0  0  0
   -3.6915   -1.1096    2.9310 C   0  0  0  0  0  0  0  0  0  0  0  0
   -2.9619   -2.1382    2.0920 C   0  0  0  0  0  0  0  0  0  0  0  0
   -2.0490   -1.3828    1.2540 N   0  0  0  0  0  0  0  0  0  0  0  0
   -1.2493   -2.0743    0.3475 C   0  0  0  0  0  0  0  0  0  0  0  0
   -1.4295   -3.2860    0.1626 O   0  0  0  0  0  0  0  0  0  0  0  0
   -0.1523   -1.2811   -0.4087 C   0  0  0  0  0  0  0  0  0  0  0  0
    0.6495   -2.0327   -1.5108 C   0  0  0  0  0  0  0  0  0  0  0  0
    1.9209   -1.2571   -1.0619 C   0  0  0  0  0  0  0  0  0  0  0  0
    2.1866    0.0215   -1.8578 C   0  0  0  0  0  0  0  0  0  0  0  0
    3.3899    0.7696   -1.2747 C   0  0  0  0  0  0  0  0  0  0  0  0
    4.6110   -0.0597   -1.2211 N   0  0  0  0  0  0  0  0  0  0  0  0
    5.7847    0.6872   -0.6738 C   0  0  0  0  0  0  0  0  0  0  0  0
    6.0257    2.0394   -1.3824 C   0  0  0  0  0  0  0  0  0  0  0  0
    7.2960    2.7150   -0.8835 C   0  0  0  0  0  0  0  0  0  0  0  0
    8.4261    1.8687   -1.0542 O   0  0  0  0  0  0  0  0  0  0  0  0
    8.2965    0.6626   -0.3112 C   0  0  0  0  0  0  0  0  0  0  0  0
    7.0867   -0.1391   -0.7729 C   0  0  0  0  0  0  0  0  0  0  0  0
    4.3489   -1.2990   -0.4571 C   0  0  0  0  0  0  0  0  0  0  0  0
    3.1844   -2.1096   -1.0319 C   0  0  0  0  0  0  0  0  0  0  0  0
    1.2072   -1.0676    0.3098 C   0  0  0  0  0  0  0  0  0  0  0  0
   -4.2475   -0.5008   -1.1784 C   0  0  0  0  0  0  0  0  0  0  0  0
   -5.6931   -0.9013   -1.5269 C   0  0  0  0  0  0  0  0  0  0  0  0
   -8.4259   -1.6864    0.2903 H   0  0  0  0  0  0  0  0  0  0  0  0
   -7.7566   -2.5528   -1.0846 H   0  0  0  0  0  0  0  0  0  0  0  0
   -8.3909   -0.9087   -1.3073 H   0  0  0  0  0  0  0  0  0  0  0  0
   -7.0165    0.0760    1.3919 H   0  0  0  0  0  0  0  0  0  0  0  0
   -7.3052    0.9307   -0.1302 H   0  0  0  0  0  0  0  0  0  0  0  0
   -5.2726    1.8056    1.2150 H   0  0  0  0  0  0  0  0  0  0  0  0
   -3.7085    2.7440   -1.5540 H   0  0  0  0  0  0  0  0  0  0  0  0
   -1.7953    4.2844   -1.4576 H   0  0  0  0  0  0  0  0  0  0  0  0
    0.0508    3.8676    0.1471 H   0  0  0  0  0  0  0  0  0  0  0  0
   -0.0120    1.9082    1.6134 H   0  0  0  0  0  0  0  0  0  0  0  0
   -0.7650   -0.1016    2.1787 H   0  0  0  0  0  0  0  0  0  0  0  0
   -3.2111    1.0106    3.1574 H   0  0  0  0  0  0  0  0  0  0  0  0
   -2.0983   -0.1010    3.9538 H   0  0  0  0  0  0  0  0  0  0  0  0
   -4.6024   -0.7863    2.4249 H   0  0  0  0  0  0  0  0  0  0  0  0
   -3.9908   -1.5070    3.9056 H   0  0  0  0  0  0  0  0  0  0  0  0
   -3.6377   -2.7463    1.4827 H   0  0  0  0  0  0  0  0  0  0  0  0
   -2.3662   -2.8061    2.7255 H   0  0  0  0  0  0  0  0  0  0  0  0
   -0.5558   -0.3562   -0.8381 H   0  0  0  0  0  0  0  0  0  0  0  0
    0.7109   -3.1178   -1.3623 H   0  0  0  0  0  0  0  0  0  0  0  0
    0.3133   -1.8494   -2.5362 H   0  0  0  0  0  0  0  0  0  0  0  0
    1.3145    0.6859   -1.8537 H   0  0  0  0  0  0  0  0  0  0  0  0
    2.3864   -0.2278   -2.9082 H   0  0  0  0  0  0  0  0  0  0  0  0
    3.5439    1.6341   -1.9280 H   0  0  0  0  0  0  0  0  0  0  0  0
    3.1456    1.1490   -0.2745 H   0  0  0  0  0  0  0  0  0  0  0  0
    5.5962    0.9012    0.3881 H   0  0  0  0  0  0  0  0  0  0  0  0
    5.1953    2.7327   -1.2143 H   0  0  0  0  0  0  0  0  0  0  0  0
    6.1121    1.8688   -2.4632 H   0  0  0  0  0  0  0  0  0  0  0  0
    7.2066    2.9995    0.1717 H   0  0  0  0  0  0  0  0  0  0  0  0
    7.4767    3.6311   -1.4551 H   0  0  0  0  0  0  0  0  0  0  0  0
    8.2335    0.8957    0.7584 H   0  0  0  0  0  0  0  0  0  0  0  0
    9.2088    0.0774   -0.4652 H   0  0  0  0  0  0  0  0  0  0  0  0
    7.2381   -0.4451   -1.8162 H   0  0  0  0  0  0  0  0  0  0  0  0
    7.0394   -1.0453   -0.1620 H   0  0  0  0  0  0  0  0  0  0  0  0
    4.1511   -1.0600    0.5958 H   0  0  0  0  0  0  0  0  0  0  0  0
    5.2181   -1.9622   -0.4861 H   0  0  0  0  0  0  0  0  0  0  0  0
    3.4356   -2.4482   -2.0455 H   0  0  0  0  0  0  0  0  0  0  0  0
    3.0365   -3.0117   -0.4259 H   0  0  0  0  0  0  0  0  0  0  0  0
    1.3408   -0.0938    0.7874 H   0  0  0  0  0  0  0  0  0  0  0  0
    1.4362   -1.8430    1.0516 H   0  0  0  0  0  0  0  0  0  0  0  0
   -3.7245   -1.3826   -0.7991 H   0  0  0  0  0  0  0  0  0  0  0  0
   -3.7390   -0.1944   -2.1004 H   0  0  0  0  0  0  0  0  0  0  0  0
   -5.6586   -1.8546   -2.0688 H   0  0  0  0  0  0  0  0  0  0  0  0
   -6.1311   -0.1593   -2.2085 H   0  0  0  0  0  0  0  0  0  0  0  0
  1  2  1  0
  2  3  1  0
  3  4  1  0
  4  5  2  0
  5  6  1  0
  6  7  2  0
  7  8  1  0
  8  9  2  0
  9 10  1  0
 10 11  2  0
 11 12  1  0
 12 13  1  0
 13 14  1  0
 14 15  1  0
 15 16  1  0
 16 17  1  0
 17 18  2  0
 17 19  1  0
 19 20  1  0
 20 21  1  0
 21 22  1  0
 22 23  1  0
 23 24  1  0
 24 25  1  0
 25 26  1  0
 26 27  1  0
 27 28  1  0
 28 29  1  0
 29 30  1  0
 24 31  1  0
 31 32  1  0
 21 33  1  0
  5 34  1  0
 34 35  1  0
 35  2  1  0
 11  6  1  0
 16 12  1  0
 33 19  1  0
 32 21  1  0
 30 25  1  0
  1 36  1  0
  1 37  1  0
  1 38  1  0
  3 39  1  0
  3 40  1  0
  4 41  1  0
  7 42  1  0
  8 43  1  0
  9 44  1  0
 10 45  1  0
 12 46  1  1
 13 47  1  0
 13 48  1  0
 14 49  1  0
 14 50  1  0
 15 51  1  0
 15 52  1  0
 19 53  1  0
 20 54  1  0
 20 55  1  0
 22 56  1  0
 22 57  1  0
 23 58  1  0
 23 59  1  0
 25 60  1  0
 26 61  1  0
 26 62  1  0
 27 63  1  0
 27 64  1  0
 29 65  1  0
 29 66  1  0
 30 67  1  0
 30 68  1  0
 31 69  1  0
 31 70  1  0
 32 71  1  0
 32 72  1  0
 33 73  1  0
 33 74  1  0
 34 75  1  0
 34 76  1  0
 35 77  1  0
 35 78  1  0
M  END
$$$$
