
     RDKit          3D

 74 79  0  0  0  0  0  0  0  0999 V2000
    5.0542    4.2816   -1.2942 C   0  0  0  0  0  0  0  0  0  0  0  0
    5.3122    2.9247   -0.8204 N   0  0  0  0  0  0  0  0  0  0  0  0
    4.8130    2.7521    0.5530 C   0  0  0  0  0  0  0  0  0  0  0  0
    4.8263    1.3237    1.0200 C   0  0  0  0  0  0  0  0  0  0  0  0
    4.9749    0.2860    0.1786 C   0  0  0  0  0  0  0  0  0  0  0  0
    4.9979   -1.0953    0.6797 C   0  0  0  0  0  0  0  0  0  0  0  0
    6.2550   -1.6386    0.9941 C   0  0  0  0  0  0  0  0  0  0  0  0
    6.3702   -2.9370    1.4863 C   0  0  0  0  0  0  0  0  0  0  0  0
    5.2288   -3.7069    1.6724 C   0  0  0  0  0  0  0  0  0  0  0  0
    3.9733   -3.1786    1.3671 C   0  0  0  0  0  0  0  0  0  0  0  0
    3.8309   -1.8680    0.8679 C   0  0  0  0  0  0  0  0  0  0  0  0
    2.4390   -1.3339    0.5430 C   0  0  0  0  0  0  0  0  0  0  0  0
    1.8207   -2.0823   -0.6511 C   0  0  0  0  0  0  0  0  0  0  0  0
    0.3309   -1.7825   -0.7663 C   0  0  0  0  0  0  0  0  0  0  0  0
   -0.4035   -2.1525    0.4424 N   0  0  0  0  0  0  0  0  0  0  0  0
   -1.7810   -2.4049    0.4695 C   0  0  0  0  0  0  0  0  0  0  0  0
   -2.3223   -2.8183    1.5028 O   0  0  0  0  0  0  0  0  0  0  0  0
   -2.5806   -2.1447   -0.8414 C   0  0  0  0  0  0  0  0  0  0  0  0
   -2.7717   -0.6769   -1.2990 C   0  0  0  0  0  0  0  0  0  0  0  0
   -4.2360   -0.7093   -0.7731 C   0  0  0  0  0  0  0  0  0  0  0  0
   -5.2870   -0.1849   -1.7643 C   0  0  0  0  0  0  0  0  0  0  0  0
   -5.6771    1.2474   -1.4001 C   0  0  0  0  0  0  0  0  0  0  0  0
   -6.3399    1.2973   -0.0941 N   0  0  0  0  0  0  0  0  0  0  0  0
   -6.6051    2.6208    0.4889 C   0  0  0  0  0  0  0  0  0  0  0  0
   -5.4848    3.5759    0.7998 C   0  0  0  0  0  0  0  0  0  0  0  0
   -6.4808    3.9109   -0.2736 C   0  0  0  0  0  0  0  0  0  0  0  0
   -5.8410    0.3117    0.8764 C   0  0  0  0  0  0  0  0  0  0  0  0
   -4.3852   -0.0784    0.6243 C   0  0  0  0  0  0  0  0  0  0  0  0
   -4.1266   -2.2598   -0.7855 C   0  0  0  0  0  0  0  0  0  0  0  0
    0.3659   -2.3182    1.6752 C   0  0  0  0  0  0  0  0  0  0  0  0
    1.5074   -1.3112    1.7736 C   0  0  0  0  0  0  0  0  0  0  0  0
    5.1211    0.4992   -1.3040 C   0  0  0  0  0  0  0  0  0  0  0  0
    4.7212    1.9257   -1.7219 C   0  0  0  0  0  0  0  0  0  0  0  0
    5.4875    4.4296   -2.2896 H   0  0  0  0  0  0  0  0  0  0  0  0
    5.5270    5.0167   -0.6335 H   0  0  0  0  0  0  0  0  0  0  0  0
    3.9827    4.5053   -1.3491 H   0  0  0  0  0  0  0  0  0  0  0  0
    3.7863    3.1281    0.6521 H   0  0  0  0  0  0  0  0  0  0  0  0
    5.4455    3.3381    1.2305 H   0  0  0  0  0  0  0  0  0  0  0  0
    4.7054    1.1574    2.0871 H   0  0  0  0  0  0  0  0  0  0  0  0
    7.1553   -1.0424    0.8570 H   0  0  0  0  0  0  0  0  0  0  0  0
    7.3493   -3.3431    1.7251 H   0  0  0  0  0  0  0  0  0  0  0  0
    5.3128   -4.7202    2.0569 H   0  0  0  0  0  0  0  0  0  0  0  0
    3.1003   -3.8077    1.5239 H   0  0  0  0  0  0  0  0  0  0  0  0
    2.5258   -0.2866    0.2305 H   0  0  0  0  0  0  0  0  0  0  0  0
    1.9544   -3.1670   -0.5525 H   0  0  0  0  0  0  0  0  0  0  0  0
    2.3329   -1.7924   -1.5768 H   0  0  0  0  0  0  0  0  0  0  0  0
    0.1738   -0.7106   -0.9303 H   0  0  0  0  0  0  0  0  0  0  0  0
   -0.0800   -2.3160   -1.6274 H   0  0  0  0  0  0  0  0  0  0  0  0
   -2.1975   -2.7875   -1.6463 H   0  0  0  0  0  0  0  0  0  0  0  0
   -2.6714   -0.5576   -2.3848 H   0  0  0  0  0  0  0  0  0  0  0  0
   -2.1185    0.0619   -0.8243 H   0  0  0  0  0  0  0  0  0  0  0  0
   -4.9131   -0.2205   -2.7941 H   0  0  0  0  0  0  0  0  0  0  0  0
   -6.1831   -0.8197   -1.7399 H   0  0  0  0  0  0  0  0  0  0  0  0
   -4.7748    1.8710   -1.4132 H   0  0  0  0  0  0  0  0  0  0  0  0
   -6.3601    1.6334   -2.1653 H   0  0  0  0  0  0  0  0  0  0  0  0
   -7.4202    2.5973    1.2131 H   0  0  0  0  0  0  0  0  0  0  0  0
   -4.4772    3.3206    0.4970 H   0  0  0  0  0  0  0  0  0  0  0  0
   -5.5380    4.1238    1.7334 H   0  0  0  0  0  0  0  0  0  0  0  0
   -6.1409    3.9060   -1.3006 H   0  0  0  0  0  0  0  0  0  0  0  0
   -7.2101    4.6860   -0.0652 H   0  0  0  0  0  0  0  0  0  0  0  0
   -6.4734   -0.5825    0.8094 H   0  0  0  0  0  0  0  0  0  0  0  0
   -5.9463    0.6791    1.9047 H   0  0  0  0  0  0  0  0  0  0  0  0
   -3.7567    0.8177    0.7066 H   0  0  0  0  0  0  0  0  0  0  0  0
   -4.0507   -0.7641    1.4097 H   0  0  0  0  0  0  0  0  0  0  0  0
   -4.5451   -2.7373   -1.6811 H   0  0  0  0  0  0  0  0  0  0  0  0
   -4.5458   -2.7731    0.0854 H   0  0  0  0  0  0  0  0  0  0  0  0
   -0.2868   -2.2097    2.5480 H   0  0  0  0  0  0  0  0  0  0  0  0
    0.7471   -3.3454    1.6843 H   0  0  0  0  0  0  0  0  0  0  0  0
    1.0629   -0.3085    1.8433 H   0  0  0  0  0  0  0  0  0  0  0  0
    2.0594   -1.4587    2.7094 H   0  0  0  0  0  0  0  0  0  0  0  0
    6.1649    0.3140   -1.5880 H   0  0  0  0  0  0  0  0  0  0  0  0
    4.4994   -0.2134   -1.8591 H   0  0  0  0  0  0  0  0  0  0  0  0
    5.0703    2.0876   -2.7492 H   0  0  0  0  0  0  0  0  0  0  0  0
    3.6262    2.0158   -1.7356 H   0  0  0  0  0  0  0  0  0  0  0  0
  1  2  1  0
  2  3  1  0
  3  4  1  0
  4  5  2  0
  5  6  1  0
  6  7  2  0
  7  8  1  0
  8  9  2  0
  9 10  1  0
 10 11  2  0
 11 12  1  0
 12 13  1  0
 13 14  1  0
 14 15  1  0
 15 16  1  0
 16 17  2  0
 16 18  1  0
 18 19  1  0
 19 20  1  0
 20 21  1  0
 21 22  1  0
 22 23  1  0
 23 24  1  0
 24 25  1  0
 25 26  1  0
 23 27  1  0
 27 28  1  0
 20 29  1  0
 15 30  1  0
 30 31  1  0
  5 32  1  0
 32 33  1  0
 33  2  1  0
 11  6  1  0
 31 12  1  0
 29 18  1  0
 28 20  1  0
 26 24  1  0
  1 34  1  0
  1 35  1  0
  1 36  1  0
  3 37  1  0
  3 38  1  0
  4 39  1  0
  7 40  1  0
  8 41  1  0
  9 42  1  0
 10 43  1  0
 12 44  1  0
 13 45  1  0
 13 46  1  0
 14 47  1  0
 14 48  1  0
 18 49  1  0
 19 50  1  0
 19 51  1  0
 21 52  1  0
 21 53  1  0
 22 54  1  0
 22 55  1  0
 24 56  1  0
 25 57  1  0
 25 58  1  0
 26 59  1  0
 26 60  1  0
 27 61  1  0
 27 62  1  0
 28 63  1  0
 28 64  1  0
 29 65  1  0
 29 66  1  0
 30 67  1  0
 30 68  1  0
 31 69  1  0
 31 70  1  0
 32 71  1  0
 32 72  1  0
 33 73  1  0
 33 74  1  0
M  END
$$$$

     RDKit          3D

 74 79  0  0  0  0  0  0  0  0999 V2000
   -7.8992   -2.9195    0.9703 C   0  0  0  0  0  0  0  0  0  0  0  0
   -7.3742   -1.9056    0.0598 N   0  0  0  0  0  0  0  0  0  0  0  0
   -6.2918   -2.4628   -0.7666 C   0  0  0  0  0  0  0  0  0  0  0  0
   -5.5447   -1.4238   -1.5548 C   0  0  0  0  0  0  0  0  0  0  0  0
   -5.6403   -0.1084   -1.2951 C   0  0  0  0  0  0  0  0  0  0  0  0
   -4.9018    0.8763   -2.0977 C   0  0  0  0  0  0  0  0  0  0  0  0
   -5.5562    1.3993   -3.2257 C   0  0  0  0  0  0  0  0  0  0  0  0
   -4.9273    2.3302   -4.0497 C   0  0  0  0  0  0  0  0  0  0  0  0
   -3.6348    2.7470   -3.7566 C   0  0  0  0  0  0  0  0  0  0  0  0
   -2.9715    2.2326   -2.6411 C   0  0  0  0  0  0  0  0  0  0  0  0
   -3.5868    1.2913   -1.7914 C   0  0  0  0  0  0  0  0  0  0  0  0
   -2.8240    0.7511   -0.5851 C   0  0  0  0  0  0  0  0  0  0  0  0
   -2.5191    1.8590    0.4386 C   0  0  0  0  0  0  0  0  0  0  0  0
   -1.4506    1.4034    1.4234 C   0  0  0  0  0  0  0  0  0  0  0  0
   -0.1958    1.0692    0.7521 N   0  0  0  0  0  0  0  0  0  0  0  0
    0.9903    1.1418    1.4915 C   0  0  0  0  0  0  0  0  0  0  0  0
    0.9581    1.3970    2.7022 O   0  0  0  0  0  0  0  0  0  0  0  0
    2.3249    0.9088    0.7273 C   0  0  0  0  0  0  0  0  0  0  0  0
    2.8765   -0.5413    0.6915 C   0  0  0  0  0  0  0  0  0  0  0  0
    4.3178    0.0387    0.8299 C   0  0  0  0  0  0  0  0  0  0  0  0
    5.2229   -0.7021    1.8250 C   0  0  0  0  0  0  0  0  0  0  0  0
    6.1603   -1.6440    1.0722 C   0  0  0  0  0  0  0  0  0  0  0  0
    7.0675   -0.9353    0.1534 N   0  0  0  0  0  0  0  0  0  0  0  0
    8.4247   -0.7752    0.7005 C   0  0  0  0  0  0  0  0  0  0  0  0
    9.5918   -0.6814   -0.2447 C   0  0  0  0  0  0  0  0  0  0  0  0
    9.3987   -1.9163    0.5840 C   0  0  0  0  0  0  0  0  0  0  0  0
    6.5227    0.3426   -0.3355 C   0  0  0  0  0  0  0  0  0  0  0  0
    5.0084    0.2740   -0.5272 C   0  0  0  0  0  0  0  0  0  0  0  0
    3.6447    1.2997    1.4501 C   0  0  0  0  0  0  0  0  0  0  0  0
   -0.2633    0.6773   -0.6547 C   0  0  0  0  0  0  0  0  0  0  0  0
   -1.5652   -0.0429   -0.9927 C   0  0  0  0  0  0  0  0  0  0  0  0
   -6.4995    0.4043   -0.1705 C   0  0  0  0  0  0  0  0  0  0  0  0
   -6.9125   -0.7201    0.7963 C   0  0  0  0  0  0  0  0  0  0  0  0
   -7.1437   -3.2678    1.6839 H   0  0  0  0  0  0  0  0  0  0  0  0
   -8.7498   -2.5239    1.5363 H   0  0  0  0  0  0  0  0  0  0  0  0
   -8.2700   -3.7851    0.4102 H   0  0  0  0  0  0  0  0  0  0  0  0
   -6.7261   -3.1797   -1.4736 H   0  0  0  0  0  0  0  0  0  0  0  0
   -5.5625   -3.0062   -0.1517 H   0  0  0  0  0  0  0  0  0  0  0  0
   -4.9074   -1.7843   -2.3577 H   0  0  0  0  0  0  0  0  0  0  0  0
   -6.5676    1.0766   -3.4662 H   0  0  0  0  0  0  0  0  0  0  0  0
   -5.4471    2.7266   -4.9176 H   0  0  0  0  0  0  0  0  0  0  0  0
   -3.1402    3.4738   -4.3958 H   0  0  0  0  0  0  0  0  0  0  0  0
   -1.9618    2.5816   -2.4401 H   0  0  0  0  0  0  0  0  0  0  0  0
   -3.4603    0.0289   -0.0602 H   0  0  0  0  0  0  0  0  0  0  0  0
   -3.4365    2.1270    0.9769 H   0  0  0  0  0  0  0  0  0  0  0  0
   -2.1728    2.7757   -0.0547 H   0  0  0  0  0  0  0  0  0  0  0  0
   -1.7799    0.5083    1.9646 H   0  0  0  0  0  0  0  0  0  0  0  0
   -1.2742    2.1897    2.1658 H   0  0  0  0  0  0  0  0  0  0  0  0
    2.3033    1.3705   -0.2706 H   0  0  0  0  0  0  0  0  0  0  0  0
    2.6688   -1.0984   -0.2271 H   0  0  0  0  0  0  0  0  0  0  0  0
    2.5451   -1.1545    1.5388 H   0  0  0  0  0  0  0  0  0  0  0  0
    5.8191    0.0151    2.4045 H   0  0  0  0  0  0  0  0  0  0  0  0
    4.6293   -1.2685    2.5520 H   0  0  0  0  0  0  0  0  0  0  0  0
    5.5638   -2.3491    0.4794 H   0  0  0  0  0  0  0  0  0  0  0  0
    6.7229   -2.2560    1.7879 H   0  0  0  0  0  0  0  0  0  0  0  0
    8.4894   -0.1775    1.6085 H   0  0  0  0  0  0  0  0  0  0  0  0
    9.4013   -0.7545   -1.3090 H   0  0  0  0  0  0  0  0  0  0  0  0
   10.4021   -0.0124    0.0183 H   0  0  0  0  0  0  0  0  0  0  0  0
   10.0772   -2.0872    1.4109 H   0  0  0  0  0  0  0  0  0  0  0  0
    9.0754   -2.8186    0.0782 H   0  0  0  0  0  0  0  0  0  0  0  0
    6.9968    0.5872   -1.2930 H   0  0  0  0  0  0  0  0  0  0  0  0
    6.7583    1.1586    0.3610 H   0  0  0  0  0  0  0  0  0  0  0  0
    4.7722   -0.5421   -1.2227 H   0  0  0  0  0  0  0  0  0  0  0  0
    4.6536    1.1976   -0.9991 H   0  0  0  0  0  0  0  0  0  0  0  0
    4.0705    2.2638    1.1549 H   0  0  0  0  0  0  0  0  0  0  0  0
    3.5801    1.2798    2.5451 H   0  0  0  0  0  0  0  0  0  0  0  0
    0.5759    0.0234   -0.9045 H   0  0  0  0  0  0  0  0  0  0  0  0
   -0.1547    1.5902   -1.2500 H   0  0  0  0  0  0  0  0  0  0  0  0
   -1.5795   -0.3153   -2.0548 H   0  0  0  0  0  0  0  0  0  0  0  0
   -1.5717   -0.9928   -0.4398 H   0  0  0  0  0  0  0  0  0  0  0  0
   -5.9688    1.1762    0.3996 H   0  0  0  0  0  0  0  0  0  0  0  0
   -7.3981    0.8701   -0.5949 H   0  0  0  0  0  0  0  0  0  0  0  0
   -6.0686   -0.9754    1.4519 H   0  0  0  0  0  0  0  0  0  0  0  0
   -7.7146   -0.3361    1.4388 H   0  0  0  0  0  0  0  0  0  0  0  0
  1  2  1  0
  2  3  1  0
  3  4  1  0
  4  5  2  0
  5  6  1  0
  6  7  2  0
  7  8  1  0
  8  9  2  0
  9 10  1  0
 10 11  2  0
 11 12  1  0
 12 13  1  0
 13 14  1  0
 14 15  1  0
 15 16  1  0
 16 17  2  0
 16 18  1  0
 18 19  1  0
 19 20  1  0
 20 21  1  0
 21 22  1  0
 22 23  1  0
 23 24  1  0
 24 25  1  0
 25 26  1  0
 23 27  1  0
 27 28  1  0
 20 29  1  0
 15 30  1  0
 30 31  1  0
  5 32  1  0
 32 33  1  0
 33  2  1  0
 11  6  1  0
 31 12  1  0
 29 18  1  0
 28 20  1  0
 26 24  1  0
  1 34  1  0
  1 35  1  0
  1 36  1  0
  3 37  1  0
  3 38  1  0
  4 39  1  0
  7 40  1  0
  8 41  1  0
  9 42  1  0
 10 43  1  0
 12 44  1  0
 13 45  1  0
 13 46  1  0
 14 47  1  0
 14 48  1  0
 18 49  1  0
 19 50  1  0
 19 51  1  0
 21 52  1  0
 21 53  1  0
 22 54  1  0
 22 55  1  0
 24 56  1  0
 25 57  1  0
 25 58  1  0
 26 59  1  0
 26 60  1  0
 27 61  1  0
 27 62  1  0
 28 63  1  0
 28 64  1  0
 29 65  1  0
 29 66  1  0
 30 67  1  0
 30 68  1  0
 31 69  1  0
 31 70  1  0
 32 71  1  0
 32 72  1  0
 33 73  1  0
 33 74  1  0
M  END
$$$$

     RDKit          3D

 74 79  0  0  0  0  0  0  0  0999 V2000
    5.8205    2.0332    3.5154 C   0  0  0  0  0  0  0  0  0  0  0  0
    5.8797    0.8762    2.6264 N   0  0  0  0  0  0  0  0  0  0  0  0
    4.8479   -0.1083    2.9873 C   0  0  0  0  0  0  0  0  0  0  0  0
    4.6898   -1.2090    1.9761 C   0  0  0  0  0  0  0  0  0  0  0  0
    5.2045   -1.1348    0.7365 C   0  0  0  0  0  0  0  0  0  0  0  0
    5.0377   -2.2386   -0.2191 C   0  0  0  0  0  0  0  0  0  0  0  0
    6.0415   -3.2211   -0.2431 C   0  0  0  0  0  0  0  0  0  0  0  0
    5.9558   -4.3092   -1.1092 C   0  0  0  0  0  0  0  0  0  0  0  0
    4.8624   -4.4295   -1.9581 C   0  0  0  0  0  0  0  0  0  0  0  0
    3.8562   -3.4619   -1.9420 C   0  0  0  0  0  0  0  0  0  0  0  0
    3.9230   -2.3495   -1.0794 C   0  0  0  0  0  0  0  0  0  0  0  0
    2.8028   -1.3162   -1.0880 C   0  0  0  0  0  0  0  0  0  0  0  0
    1.4795   -1.9114   -0.5885 C   0  0  0  0  0  0  0  0  0  0  0  0
    0.3807   -0.8535   -0.5630 C   0  0  0  0  0  0  0  0  0  0  0  0
    0.2489   -0.1498   -1.8386 N   0  0  0  0  0  0  0  0  0  0  0  0
   -0.9486    0.4756   -2.2319 C   0  0  0  0  0  0  0  0  0  0  0  0
   -0.9542    1.3025   -3.1534 O   0  0  0  0  0  0  0  0  0  0  0  0
   -2.2492    0.0788   -1.4804 C   0  0  0  0  0  0  0  0  0  0  0  0
   -2.5257    0.7635   -0.1144 C   0  0  0  0  0  0  0  0  0  0  0  0
   -4.0410    0.8075   -0.4799 C   0  0  0  0  0  0  0  0  0  0  0  0
   -4.8234   -0.4147    0.0350 C   0  0  0  0  0  0  0  0  0  0  0  0
   -6.3152   -0.0904    0.0960 C   0  0  0  0  0  0  0  0  0  0  0  0
   -6.6099    0.9855    1.0599 N   0  0  0  0  0  0  0  0  0  0  0  0
   -8.0074    1.4460    0.9362 C   0  0  0  0  0  0  0  0  0  0  0  0
   -8.5513    2.5922    1.7422 C   0  0  0  0  0  0  0  0  0  0  0  0
   -8.3935    2.7265    0.2519 C   0  0  0  0  0  0  0  0  0  0  0  0
   -5.5411    1.9927    1.1444 C   0  0  0  0  0  0  0  0  0  0  0  0
   -4.7493    2.1303   -0.1560 C   0  0  0  0  0  0  0  0  0  0  0  0
   -3.5830    0.7156   -1.9659 C   0  0  0  0  0  0  0  0  0  0  0  0
    1.4879    0.3650   -2.4232 C   0  0  0  0  0  0  0  0  0  0  0  0
    2.5917   -0.6863   -2.4724 C   0  0  0  0  0  0  0  0  0  0  0  0
    5.9622    0.0823    0.2776 C   0  0  0  0  0  0  0  0  0  0  0  0
    5.7490    1.2811    1.2193 C   0  0  0  0  0  0  0  0  0  0  0  0
    4.8699    2.5723    3.4321 H   0  0  0  0  0  0  0  0  0  0  0  0
    6.6331    2.7327    3.2900 H   0  0  0  0  0  0  0  0  0  0  0  0
    5.9522    1.7245    4.5584 H   0  0  0  0  0  0  0  0  0  0  0  0
    5.1202   -0.5636    3.9469 H   0  0  0  0  0  0  0  0  0  0  0  0
    3.8690    0.3720    3.1159 H   0  0  0  0  0  0  0  0  0  0  0  0
    4.1307   -2.0858    2.2910 H   0  0  0  0  0  0  0  0  0  0  0  0
    6.8992   -3.1395    0.4220 H   0  0  0  0  0  0  0  0  0  0  0  0
    6.7403   -5.0609   -1.1172 H   0  0  0  0  0  0  0  0  0  0  0  0
    4.7891   -5.2778   -2.6338 H   0  0  0  0  0  0  0  0  0  0  0  0
    3.0108   -3.5889   -2.6149 H   0  0  0  0  0  0  0  0  0  0  0  0
    3.0611   -0.4936   -0.4111 H   0  0  0  0  0  0  0  0  0  0  0  0
    1.6042   -2.3323    0.4168 H   0  0  0  0  0  0  0  0  0  0  0  0
    1.1610   -2.7359   -1.2393 H   0  0  0  0  0  0  0  0  0  0  0  0
   -0.5579   -1.3374   -0.2857 H   0  0  0  0  0  0  0  0  0  0  0  0
    0.5944   -0.0975    0.2023 H   0  0  0  0  0  0  0  0  0  0  0  0
   -2.3599   -1.0145   -1.4347 H   0  0  0  0  0  0  0  0  0  0  0  0
   -2.0481    1.7464   -0.0161 H   0  0  0  0  0  0  0  0  0  0  0  0
   -2.2625    0.1730    0.7683 H   0  0  0  0  0  0  0  0  0  0  0  0
   -4.6617   -1.2894   -0.6056 H   0  0  0  0  0  0  0  0  0  0  0  0
   -4.4771   -0.6952    1.0384 H   0  0  0  0  0  0  0  0  0  0  0  0
   -6.6642    0.1891   -0.9072 H   0  0  0  0  0  0  0  0  0  0  0  0
   -6.8637   -0.9925    0.3919 H   0  0  0  0  0  0  0  0  0  0  0  0
   -8.7123    0.6198    0.8256 H   0  0  0  0  0  0  0  0  0  0  0  0
   -9.5558    2.4935    2.1390 H   0  0  0  0  0  0  0  0  0  0  0  0
   -7.8882    3.1513    2.3889 H   0  0  0  0  0  0  0  0  0  0  0  0
   -7.6250    3.3906   -0.1211 H   0  0  0  0  0  0  0  0  0  0  0  0
   -9.2913    2.7188   -0.3559 H   0  0  0  0  0  0  0  0  0  0  0  0
   -5.9083    2.9765    1.4502 H   0  0  0  0  0  0  0  0  0  0  0  0
   -4.8570    1.6823    1.9451 H   0  0  0  0  0  0  0  0  0  0  0  0
   -4.0283    2.9512   -0.0678 H   0  0  0  0  0  0  0  0  0  0  0  0
   -5.4322    2.4052   -0.9703 H   0  0  0  0  0  0  0  0  0  0  0  0
   -3.4625    1.6891   -2.4575 H   0  0  0  0  0  0  0  0  0  0  0  0
   -4.1932    0.0818   -2.6170 H   0  0  0  0  0  0  0  0  0  0  0  0
    1.8017    1.2228   -1.8155 H   0  0  0  0  0  0  0  0  0  0  0  0
    1.3067    0.7362   -3.4377 H   0  0  0  0  0  0  0  0  0  0  0  0
    3.5215   -0.2258   -2.8281 H   0  0  0  0  0  0  0  0  0  0  0  0
    2.3140   -1.4508   -3.2085 H   0  0  0  0  0  0  0  0  0  0  0  0
    5.6494    0.3730   -0.7325 H   0  0  0  0  0  0  0  0  0  0  0  0
    7.0313   -0.1617    0.2323 H   0  0  0  0  0  0  0  0  0  0  0  0
    4.7622    1.7278    1.0349 H   0  0  0  0  0  0  0  0  0  0  0  0
    6.4986    2.0430    0.9722 H   0  0  0  0  0  0  0  0  0  0  0  0
  1  2  1  0
  2  3  1  0
  3  4  1  0
  4  5  2  0
  5  6  1  0
  6  7  2  0
  7  8  1  0
  8  9  2  0
  9 10  1  0
 10 11  2  0
 11 12  1  0
 12 13  1  0
 13 14  1  0
 14 15  1  0
 15 16  1  0
 16 17  2  0
 16 18  1  0
 18 19  1  0
 19 20  1  0
 20 21  1  0
 21 22  1  0
 22 23  1  0
 23 24  1  0
 24 25  1  0
 25 26  1  0
 23 27  1  0
 27 28  1  0
 20 29  1  0
 15 30  1  0
 30 31  1  0
  5 32  1  0
 32 33  1  0
 33  2  1  0
 11  6  1  0
 31 12  1  0
 29 18  1  0
 28 20  1  0
 26 24  1  0
  1 34  1  0
  1 35  1  0
  1 36  1  0
  3 37  1  0
  3 38  1  0
  4 39  1  0
  7 40  1  0
  8 41  1  0
  9 42  1  0
 10 43  1  0
 12 44  1  0
 13 45  1  0
 13 46  1  0
 14 47  1  0
 14 48  1  0
 18 49  1  0
 19 50  1  0
 19 51  1  0
 21 52  1  0
 21 53  1  0
 22 54  1  0
 22 55  1  0
 24 56  1  0
 25 57  1  0
 25 58  1  0
 26 59  1  0
 26 60  1  0
 27 61  1  0
 27 62  1  0
 28 63  1  0
 28 64  1  0
 29 65  1  0
 29 66  1  0
 30 67  1  0
 30 68  1  0
 31 69  1  0
 31 70  1  0
 32 71  1  0
 32 72  1  0
 33 73  1  0
 33 74  1  0
M  END
$$$$
