
     RDKit          3D

 70 75  0  0  0  0  0  0  0  0999 V2000
    3.8254    1.1891    5.0722 C   0  0  0  0  0  0  0  0  0  0  0  0
    3.3222    1.5246    3.7458 N   0  0  0  0  0  0  0  0  0  0  0  0
    1.8549    1.3881    3.6617 C   0  0  0  0  0  0  0  0  0  0  0  0
    1.3110    0.8541    2.3146 C   0  0  0  0  0  0  0  0  0  0  0  0
    2.0738    1.3533    1.1718 N   0  0  0  0  0  0  0  0  0  0  0  0
    1.5421    2.1027    0.1211 C   0  0  0  0  0  0  0  0  0  0  0  0
    2.2877    2.6823   -0.6793 O   0  0  0  0  0  0  0  0  0  0  0  0
   -0.0025    2.1618   -0.0070 C   0  0  0  0  0  0  0  0  0  0  0  0
   -0.7422    0.8425   -0.3629 C   0  0  0  0  0  0  0  0  0  0  0  0
   -1.7152    1.6696   -1.2579 C   0  0  0  0  0  0  0  0  0  0  0  0
   -2.0567    1.0085   -2.5881 C   0  0  0  0  0  0  0  0  0  0  0  0
   -2.9490   -0.2184   -2.3409 C   0  0  0  0  0  0  0  0  0  0  0  0
   -3.7990   -0.1295   -1.1308 N   0  0  0  0  0  0  0  0  0  0  0  0
   -4.9397   -1.0841   -1.1705 C   0  0  0  0  0  0  0  0  0  0  0  0
   -5.7145   -1.1493    0.1649 C   0  0  0  0  0  0  0  0  0  0  0  0
   -4.8675   -1.7857    1.2603 C   0  0  0  0  0  0  0  0  0  0  0  0
   -4.4845   -3.1114    0.8907 O   0  0  0  0  0  0  0  0  0  0  0  0
   -3.7096   -3.1268   -0.3092 C   0  0  0  0  0  0  0  0  0  0  0  0
   -4.5036   -2.5381   -1.4702 C   0  0  0  0  0  0  0  0  0  0  0  0
   -4.2043    1.2652   -0.9138 C   0  0  0  0  0  0  0  0  0  0  0  0
   -2.9959    2.1466   -0.5534 C   0  0  0  0  0  0  0  0  0  0  0  0
   -0.5884    2.7398   -1.3274 C   0  0  0  0  0  0  0  0  0  0  0  0
    3.5392    1.2099    1.2650 C   0  0  2  0  0  0  0  0  0  0  0  0
    4.0764    0.2580    0.2105 C   0  0  0  0  0  0  0  0  0  0  0  0
    5.0369    0.6973   -0.7043 C   0  0  0  0  0  0  0  0  0  0  0  0
    5.6280   -0.0498   -1.6694 N   0  0  0  0  0  0  0  0  0  0  0  0
    5.1709   -1.3131   -1.7010 C   0  0  0  0  0  0  0  0  0  0  0  0
    5.5910   -2.2655   -2.5878 N   0  0  0  0  0  0  0  0  0  0  0  0
    4.9276   -3.4439   -2.3542 C   0  0  0  0  0  0  0  0  0  0  0  0
    4.0646   -3.2386   -1.2972 C   0  0  0  0  0  0  0  0  0  0  0  0
    4.2126   -1.8889   -0.8765 C   0  0  0  0  0  0  0  0  0  0  0  0
    3.6440   -1.0754    0.1164 C   0  0  0  0  0  0  0  0  0  0  0  0
    4.0046    0.7617    2.6868 C   0  0  0  0  0  0  0  0  0  0  0  0
    4.9007    1.3877    5.1381 H   0  0  0  0  0  0  0  0  0  0  0  0
    3.3427    1.8103    5.8348 H   0  0  0  0  0  0  0  0  0  0  0  0
    3.6540    0.1363    5.3234 H   0  0  0  0  0  0  0  0  0  0  0  0
    1.4315    2.3846    3.8369 H   0  0  0  0  0  0  0  0  0  0  0  0
    1.4629    0.7371    4.4538 H   0  0  0  0  0  0  0  0  0  0  0  0
    1.3877   -0.2394    2.2940 H   0  0  0  0  0  0  0  0  0  0  0  0
    0.2514    1.1029    2.2408 H   0  0  0  0  0  0  0  0  0  0  0  0
   -0.4476    2.6775    0.8565 H   0  0  0  0  0  0  0  0  0  0  0  0
   -1.2000    0.3156    0.4798 H   0  0  0  0  0  0  0  0  0  0  0  0
   -0.1176    0.1260   -0.9117 H   0  0  0  0  0  0  0  0  0  0  0  0
   -1.1548    0.7012   -3.1311 H   0  0  0  0  0  0  0  0  0  0  0  0
   -2.5821    1.7259   -3.2316 H   0  0  0  0  0  0  0  0  0  0  0  0
   -2.2902   -1.0879   -2.2300 H   0  0  0  0  0  0  0  0  0  0  0  0
   -3.5538   -0.3781   -3.2428 H   0  0  0  0  0  0  0  0  0  0  0  0
   -5.6337   -0.7663   -1.9602 H   0  0  0  0  0  0  0  0  0  0  0  0
   -6.6062   -1.7718    0.0084 H   0  0  0  0  0  0  0  0  0  0  0  0
   -6.0868   -0.1745    0.4887 H   0  0  0  0  0  0  0  0  0  0  0  0
   -3.9736   -1.1934    1.4870 H   0  0  0  0  0  0  0  0  0  0  0  0
   -5.4533   -1.8604    2.1821 H   0  0  0  0  0  0  0  0  0  0  0  0
   -2.7663   -2.5944   -0.1424 H   0  0  0  0  0  0  0  0  0  0  0  0
   -3.4618   -4.1710   -0.5250 H   0  0  0  0  0  0  0  0  0  0  0  0
   -3.9379   -2.6206   -2.4032 H   0  0  0  0  0  0  0  0  0  0  0  0
   -5.4105   -3.1412   -1.6137 H   0  0  0  0  0  0  0  0  0  0  0  0
   -4.7027    1.6571   -1.8107 H   0  0  0  0  0  0  0  0  0  0  0  0
   -4.9200    1.3776   -0.0956 H   0  0  0  0  0  0  0  0  0  0  0  0
   -2.8559    2.1514    0.5347 H   0  0  0  0  0  0  0  0  0  0  0  0
   -3.2292    3.1777   -0.8464 H   0  0  0  0  0  0  0  0  0  0  0  0
   -0.9104    3.7843   -1.2736 H   0  0  0  0  0  0  0  0  0  0  0  0
    0.0748    2.6343   -2.1951 H   0  0  0  0  0  0  0  0  0  0  0  0
    3.9565    2.2117    1.0910 H   0  0  0  0  0  0  0  0  0  0  0  0
    5.3775    1.7318   -0.6868 H   0  0  0  0  0  0  0  0  0  0  0  0
    6.2849   -2.0942   -3.3003 H   0  0  0  0  0  0  0  0  0  0  0  0
    5.1252   -4.3190   -2.9585 H   0  0  0  0  0  0  0  0  0  0  0  0
    3.3990   -3.9795   -0.8744 H   0  0  0  0  0  0  0  0  0  0  0  0
    2.8886   -1.4755    0.7830 H   0  0  0  0  0  0  0  0  0  0  0  0
    3.8264   -0.3117    2.8381 H   0  0  0  0  0  0  0  0  0  0  0  0
    5.0902    0.9113    2.7560 H   0  0  0  0  0  0  0  0  0  0  0  0
  1  2  1  0
  2  3  1  0
  3  4  1  0
  4  5  1  0
  5  6  1  0
  6  7  2  0
  6  8  1  0
  8  9  1  0
  9 10  1  0
 10 11  1  0
 11 12  1  0
 12 13  1  0
 13 14  1  0
 14 15  1  0
 15 16  1  0
 16 17  1  0
 17 18  1  0
 18 19  1  0
 13 20  1  0
 20 21  1  0
 10 22  1  0
  5 23  1  0
 23 24  1  0
 24 25  2  0
 25 26  1  0
 26 27  2  0
 27 28  1  0
 28 29  1  0
 29 30  2  0
 30 31  1  0
 31 32  2  0
 23 33  1  0
 33  2  1  0
 22  8  1  0
 32 24  1  0
 21 10  1  0
 31 27  1  0
 19 14  1  0
  1 34  1  0
  1 35  1  0
  1 36  1  0
  3 37  1  0
  3 38  1  0
  4 39  1  0
  4 40  1  0
  8 41  1  0
  9 42  1  0
  9 43  1  0
 11 44  1  0
 11 45  1  0
 12 46  1  0
 12 47  1  0
 14 48  1  0
 15 49  1  0
 15 50  1  0
 16 51  1  0
 16 52  1  0
 18 53  1  0
 18 54  1  0
 19 55  1  0
 19 56  1  0
 20 57  1  0
 20 58  1  0
 21 59  1  0
 21 60  1  0
 22 61  1  0
 22 62  1  0
 23 63  1  6
 25 64  1  0
 28 65  1  0
 29 66  1  0
 30 67  1  0
 32 68  1  0
 33 69  1  0
 33 70  1  0
M  END
$$$$

     RDKit          3D

 70 75  0  0  0  0  0  0  0  0999 V2000
    5.3662    3.9554   -0.3644 C   0  0  0  0  0  0  0  0  0  0  0  0
    4.8585    3.2957    0.8354 N   0  0  0  0  0  0  0  0  0  0  0  0
    3.4080    3.4623    1.0020 C   0  0  0  0  0  0  0  0  0  0  0  0
    2.5579    2.7319   -0.0476 C   0  0  0  0  0  0  0  0  0  0  0  0
    2.9215    1.3305   -0.2853 N   0  0  0  0  0  0  0  0  0  0  0  0
    2.1801    0.6406   -1.2722 C   0  0  0  0  0  0  0  0  0  0  0  0
    2.7256   -0.1583   -2.0419 O   0  0  0  0  0  0  0  0  0  0  0  0
    0.6532    0.9311   -1.3269 C   0  0  0  0  0  0  0  0  0  0  0  0
   -0.2322   -0.0737   -2.1170 C   0  0  0  0  0  0  0  0  0  0  0  0
   -1.3367    0.0959   -1.0302 C   0  0  0  0  0  0  0  0  0  0  0  0
   -2.3662    1.1858   -1.3759 C   0  0  0  0  0  0  0  0  0  0  0  0
   -3.6450    0.9673   -0.5653 C   0  0  0  0  0  0  0  0  0  0  0  0
   -4.3198   -0.2938   -0.9223 N   0  0  0  0  0  0  0  0  0  0  0  0
   -5.3476   -0.7138    0.0645 C   0  0  0  0  0  0  0  0  0  0  0  0
   -6.2760    0.4232    0.5278 C   0  0  0  0  0  0  0  0  0  0  0  0
   -7.2838   -0.0766    1.5642 C   0  0  0  0  0  0  0  0  0  0  0  0
   -7.5752   -1.4680    1.4505 O   0  0  0  0  0  0  0  0  0  0  0  0
   -7.6235   -1.8917    0.0955 C   0  0  0  0  0  0  0  0  0  0  0  0
   -6.2272   -1.8486   -0.5147 C   0  0  0  0  0  0  0  0  0  0  0  0
   -3.3602   -1.3655   -1.2635 C   0  0  0  0  0  0  0  0  0  0  0  0
   -2.0063   -1.2056   -0.5718 C   0  0  0  0  0  0  0  0  0  0  0  0
   -0.1918    0.5518   -0.0787 C   0  0  0  0  0  0  0  0  0  0  0  0
    4.3587    0.9761   -0.1818 C   0  0  2  0  0  0  0  0  0  0  0  0
    4.5588   -0.4803    0.2186 C   0  0  0  0  0  0  0  0  0  0  0  0
    5.4599   -1.2864   -0.4810 C   0  0  0  0  0  0  0  0  0  0  0  0
    5.7680   -2.5761   -0.1996 N   0  0  0  0  0  0  0  0  0  0  0  0
    5.0792   -3.0569    0.8502 C   0  0  0  0  0  0  0  0  0  0  0  0
    5.1907   -4.3331    1.3291 N   0  0  0  0  0  0  0  0  0  0  0  0
    4.3560   -4.5014    2.4053 C   0  0  0  0  0  0  0  0  0  0  0  0
    3.6956   -3.3084    2.6162 C   0  0  0  0  0  0  0  0  0  0  0  0
    4.1473   -2.3865    1.6331 C   0  0  0  0  0  0  0  0  0  0  0  0
    3.8783   -1.0476    1.3099 C   0  0  0  0  0  0  0  0  0  0  0  0
    5.1566    1.8513    0.8385 C   0  0  0  0  0  0  0  0  0  0  0  0
    6.4565    3.8595   -0.4157 H   0  0  0  0  0  0  0  0  0  0  0  0
    5.1489    5.0287   -0.3289 H   0  0  0  0  0  0  0  0  0  0  0  0
    4.9485    3.5543   -1.2933 H   0  0  0  0  0  0  0  0  0  0  0  0
    3.1492    4.5282    1.0083 H   0  0  0  0  0  0  0  0  0  0  0  0
    3.1328    3.0878    1.9971 H   0  0  0  0  0  0  0  0  0  0  0  0
    2.6274    3.2520   -1.0113 H   0  0  0  0  0  0  0  0  0  0  0  0
    1.5101    2.7814    0.2630 H   0  0  0  0  0  0  0  0  0  0  0  0
    0.4582    1.9572   -1.6708 H   0  0  0  0  0  0  0  0  0  0  0  0
   -0.4983    0.2415   -3.1308 H   0  0  0  0  0  0  0  0  0  0  0  0
    0.1906   -1.0841   -2.1794 H   0  0  0  0  0  0  0  0  0  0  0  0
   -1.9677    2.1870   -1.1743 H   0  0  0  0  0  0  0  0  0  0  0  0
   -2.6104    1.1572   -2.4459 H   0  0  0  0  0  0  0  0  0  0  0  0
   -3.3935    0.9862    0.5034 H   0  0  0  0  0  0  0  0  0  0  0  0
   -4.3202    1.8063   -0.7679 H   0  0  0  0  0  0  0  0  0  0  0  0
   -4.8317   -1.0953    0.9575 H   0  0  0  0  0  0  0  0  0  0  0  0
   -6.8191    0.8229   -0.3393 H   0  0  0  0  0  0  0  0  0  0  0  0
   -5.7313    1.2661    0.9661 H   0  0  0  0  0  0  0  0  0  0  0  0
   -6.8885    0.0812    2.5735 H   0  0  0  0  0  0  0  0  0  0  0  0
   -8.2183    0.4912    1.4931 H   0  0  0  0  0  0  0  0  0  0  0  0
   -8.0152   -2.9136    0.0646 H   0  0  0  0  0  0  0  0  0  0  0  0
   -8.3247   -1.2602   -0.4639 H   0  0  0  0  0  0  0  0  0  0  0  0
   -6.3267   -1.7718   -1.6047 H   0  0  0  0  0  0  0  0  0  0  0  0
   -5.7365   -2.8094   -0.3150 H   0  0  0  0  0  0  0  0  0  0  0  0
   -3.2113   -1.3414   -2.3508 H   0  0  0  0  0  0  0  0  0  0  0  0
   -3.7498   -2.3640   -1.0451 H   0  0  0  0  0  0  0  0  0  0  0  0
   -2.1551   -1.1972    0.5160 H   0  0  0  0  0  0  0  0  0  0  0  0
   -1.3719   -2.0727   -0.7893 H   0  0  0  0  0  0  0  0  0  0  0  0
    0.2505   -0.2557    0.5189 H   0  0  0  0  0  0  0  0  0  0  0  0
   -0.4365    1.3774    0.5963 H   0  0  0  0  0  0  0  0  0  0  0  0
    4.7833    1.1441   -1.1811 H   0  0  0  0  0  0  0  0  0  0  0  0
    5.9937   -0.8920   -1.3438 H   0  0  0  0  0  0  0  0  0  0  0  0
    5.8028   -5.0267    0.9260 H   0  0  0  0  0  0  0  0  0  0  0  0
    4.3039   -5.4503    2.9219 H   0  0  0  0  0  0  0  0  0  0  0  0
    2.9658   -3.1208    3.3926 H   0  0  0  0  0  0  0  0  0  0  0  0
    3.1621   -0.4729    1.8879 H   0  0  0  0  0  0  0  0  0  0  0  0
    6.2343    1.6932    0.6947 H   0  0  0  0  0  0  0  0  0  0  0  0
    4.9595    1.4978    1.8605 H   0  0  0  0  0  0  0  0  0  0  0  0
  1  2  1  0
  2  3  1  0
  3  4  1  0
  4  5  1  0
  5  6  1  0
  6  7  2  0
  6  8  1  0
  8  9  1  0
  9 10  1  0
 10 11  1  0
 11 12  1  0
 12 13  1  0
 13 14  1  0
 14 15  1  0
 15 16  1  0
 16 17  1  0
 17 18  1  0
 18 19  1  0
 13 20  1  0
 20 21  1  0
 10 22  1  0
  5 23  1  0
 23 24  1  0
 24 25  2  0
 25 26  1  0
 26 27  2  0
 27 28  1  0
 28 29  1  0
 29 30  2  0
 30 31  1  0
 31 32  2  0
 23 33  1  0
 33  2  1  0
 22  8  1  0
 32 24  1  0
 21 10  1  0
 31 27  1  0
 19 14  1  0
  1 34  1  0
  1 35  1  0
  1 36  1  0
  3 37  1  0
  3 38  1  0
  4 39  1  0
  4 40  1  0
  8 41  1  0
  9 42  1  0
  9 43  1  0
 11 44  1  0
 11 45  1  0
 12 46  1  0
 12 47  1  0
 14 48  1  0
 15 49  1  0
 15 50  1  0
 16 51  1  0
 16 52  1  0
 18 53  1  0
 18 54  1  0
 19 55  1  0
 19 56  1  0
 20 57  1  0
 20 58  1  0
 21 59  1  0
 21 60  1  0
 22 61  1  0
 22 62  1  0
 23 63  1  6
 25 64  1  0
 28 65  1  0
 29 66  1  0
 30 67  1  0
 32 68  1  0
 33 69  1  0
 33 70  1  0
M  END
$$$$

     RDKit          3D

 70 75  0  0  0  0  0  0  0  0999 V2000
   -6.0527   -4.0072    0.6368 C   0  0  0  0  0  0  0  0  0  0  0  0
   -5.1465   -2.8953    0.9179 N   0  0  0  0  0  0  0  0  0  0  0  0
   -4.4999   -3.0715    2.2306 C   0  0  0  0  0  0  0  0  0  0  0  0
   -3.5458   -1.9139    2.5631 C   0  0  0  0  0  0  0  0  0  0  0  0
   -2.5711   -1.6302    1.4974 N   0  0  0  0  0  0  0  0  0  0  0  0
   -1.3255   -1.1074    1.8715 C   0  0  0  0  0  0  0  0  0  0  0  0
   -1.0633   -0.9290    3.0689 O   0  0  0  0  0  0  0  0  0  0  0  0
   -0.2904   -0.7988    0.7510 C   0  0  0  0  0  0  0  0  0  0  0  0
   -0.3185    0.6104    0.1044 C   0  0  0  0  0  0  0  0  0  0  0  0
    1.2358    0.5949    0.0564 C   0  0  0  0  0  0  0  0  0  0  0  0
    1.8260    0.0901   -1.2635 C   0  0  0  0  0  0  0  0  0  0  0  0
    3.3422   -0.1203   -1.1174 C   0  0  0  0  0  0  0  0  0  0  0  0
    3.9738    0.7858   -0.1487 N   0  0  0  0  0  0  0  0  0  0  0  0
    5.4426    0.8915   -0.2445 C   0  0  0  0  0  0  0  0  0  0  0  0
    5.9745    1.6133   -1.4953 C   0  0  0  0  0  0  0  0  0  0  0  0
    7.4984    1.6550   -1.4699 C   0  0  0  0  0  0  0  0  0  0  0  0
    8.0436    0.3418   -1.3594 O   0  0  0  0  0  0  0  0  0  0  0  0
    7.6489   -0.3042   -0.1496 C   0  0  0  0  0  0  0  0  0  0  0  0
    6.1363   -0.4745   -0.1009 C   0  0  0  0  0  0  0  0  0  0  0  0
    3.2978    2.0804   -0.0832 C   0  0  0  0  0  0  0  0  0  0  0  0
    1.8669    1.9375    0.4548 C   0  0  0  0  0  0  0  0  0  0  0  0
    1.1641   -0.4704    1.1960 C   0  0  0  0  0  0  0  0  0  0  0  0
   -3.0951   -1.6182    0.1119 C   0  0  2  0  0  0  0  0  0  0  0  0
   -3.6460   -0.2726   -0.3497 C   0  0  0  0  0  0  0  0  0  0  0  0
   -3.9296   -0.0849   -1.7100 C   0  0  0  0  0  0  0  0  0  0  0  0
   -4.3925    1.0443   -2.3005 N   0  0  0  0  0  0  0  0  0  0  0  0
   -4.5738    2.0461   -1.4240 C   0  0  0  0  0  0  0  0  0  0  0  0
   -5.0343    3.2913   -1.7527 N   0  0  0  0  0  0  0  0  0  0  0  0
   -5.0918    4.0773   -0.6295 C   0  0  0  0  0  0  0  0  0  0  0  0
   -4.6626    3.3165    0.4386 C   0  0  0  0  0  0  0  0  0  0  0  0
   -4.3354    2.0251   -0.0566 C   0  0  0  0  0  0  0  0  0  0  0  0
   -3.8526    0.8268    0.4977 C   0  0  0  0  0  0  0  0  0  0  0  0
   -4.1008   -2.7935   -0.1196 C   0  0  0  0  0  0  0  0  0  0  0  0
   -6.5543   -3.8586   -0.3258 H   0  0  0  0  0  0  0  0  0  0  0  0
   -5.5328   -4.9716    0.6095 H   0  0  0  0  0  0  0  0  0  0  0  0
   -6.8402   -4.0614    1.3965 H   0  0  0  0  0  0  0  0  0  0  0  0
   -3.9381   -4.0151    2.2552 H   0  0  0  0  0  0  0  0  0  0  0  0
   -5.2620   -3.1253    3.0173 H   0  0  0  0  0  0  0  0  0  0  0  0
   -3.0229   -2.1505    3.4964 H   0  0  0  0  0  0  0  0  0  0  0  0
   -4.1224   -1.0014    2.7465 H   0  0  0  0  0  0  0  0  0  0  0  0
   -0.2571   -1.6036    0.0036 H   0  0  0  0  0  0  0  0  0  0  0  0
   -0.8150    0.6724   -0.8683 H   0  0  0  0  0  0  0  0  0  0  0  0
   -0.7424    1.3832    0.7577 H   0  0  0  0  0  0  0  0  0  0  0  0
    1.6330    0.8284   -2.0529 H   0  0  0  0  0  0  0  0  0  0  0  0
    1.3587   -0.8458   -1.5909 H   0  0  0  0  0  0  0  0  0  0  0  0
    3.5096   -1.1505   -0.7814 H   0  0  0  0  0  0  0  0  0  0  0  0
    3.7846   -0.0357   -2.1159 H   0  0  0  0  0  0  0  0  0  0  0  0
    5.7635    1.4811    0.6270 H   0  0  0  0  0  0  0  0  0  0  0  0
    5.5888    2.6362   -1.5581 H   0  0  0  0  0  0  0  0  0  0  0  0
    5.6578    1.0816   -2.3997 H   0  0  0  0  0  0  0  0  0  0  0  0
    7.8668    2.2743   -0.6435 H   0  0  0  0  0  0  0  0  0  0  0  0
    7.8725    2.0932   -2.4007 H   0  0  0  0  0  0  0  0  0  0  0  0
    8.0164    0.2697    0.7092 H   0  0  0  0  0  0  0  0  0  0  0  0
    8.1343   -1.2850   -0.1227 H   0  0  0  0  0  0  0  0  0  0  0  0
    5.8412   -1.1349   -0.9253 H   0  0  0  0  0  0  0  0  0  0  0  0
    5.8465   -0.9597    0.8382 H   0  0  0  0  0  0  0  0  0  0  0  0
    3.8337    2.7772    0.5732 H   0  0  0  0  0  0  0  0  0  0  0  0
    3.2696    2.5471   -1.0766 H   0  0  0  0  0  0  0  0  0  0  0  0
    1.2710    2.7681    0.0558 H   0  0  0  0  0  0  0  0  0  0  0  0
    1.8679    2.0502    1.5458 H   0  0  0  0  0  0  0  0  0  0  0  0
    1.8649   -1.3078    1.1242 H   0  0  0  0  0  0  0  0  0  0  0  0
    1.2409   -0.0550    2.2080 H   0  0  0  0  0  0  0  0  0  0  0  0
   -2.2448   -1.8206   -0.5479 H   0  0  0  0  0  0  0  0  0  0  0  0
   -3.7695   -0.8943   -2.4209 H   0  0  0  0  0  0  0  0  0  0  0  0
   -5.2850    3.5635   -2.6915 H   0  0  0  0  0  0  0  0  0  0  0  0
   -5.4318    5.1025   -0.6875 H   0  0  0  0  0  0  0  0  0  0  0  0
   -4.5929    3.6521    1.4652 H   0  0  0  0  0  0  0  0  0  0  0  0
   -3.6381    0.7889    1.5588 H   0  0  0  0  0  0  0  0  0  0  0  0
   -4.5719   -2.6997   -1.1050 H   0  0  0  0  0  0  0  0  0  0  0  0
   -3.5233   -3.7292   -0.1394 H   0  0  0  0  0  0  0  0  0  0  0  0
  1  2  1  0
  2  3  1  0
  3  4  1  0
  4  5  1  0
  5  6  1  0
  6  7  2  0
  6  8  1  0
  8  9  1  0
  9 10  1  0
 10 11  1  0
 11 12  1  0
 12 13  1  0
 13 14  1  0
 14 15  1  0
 15 16  1  0
 16 17  1  0
 17 18  1  0
 18 19  1  0
 13 20  1  0
 20 21  1  0
 10 22  1  0
  5 23  1  0
 23 24  1  0
 24 25  2  0
 25 26  1  0
 26 27  2  0
 27 28  1  0
 28 29  1  0
 29 30  2  0
 30 31  1  0
 31 32  2  0
 23 33  1  0
 33  2  1  0
 22  8  1  0
 32 24  1  0
 21 10  1  0
 31 27  1  0
 19 14  1  0
  1 34  1  0
  1 35  1  0
  1 36  1  0
  3 37  1  0
  3 38  1  0
  4 39  1  0
  4 40  1  0
  8 41  1  0
  9 42  1  0
  9 43  1  0
 11 44  1  0
 11 45  1  0
 12 46  1  0
 12 47  1  0
 14 48  1  0
 15 49  1  0
 15 50  1  0
 16 51  1  0
 16 52  1  0
 18 53  1  0
 18 54  1  0
 19 55  1  0
 19 56  1  0
 20 57  1  0
 20 58  1  0
 21 59  1  0
 21 60  1  0
 22 61  1  0
 22 62  1  0
 23 63  1  6
 25 64  1  0
 28 65  1  0
 29 66  1  0
 30 67  1  0
 32 68  1  0
 33 69  1  0
 33 70  1  0
M  END
$$$$
