
     RDKit          3D

 93 99  0  0  0  0  0  0  0  0999 V2000
   -8.2596   -2.7648   -2.5787 C   0  0  0  0  0  0  0  0  0  0  0  0
   -7.8069   -1.6964   -1.6916 N   0  0  0  0  0  0  0  0  0  0  0  0
   -7.4187   -0.5092   -2.4694 C   0  0  0  0  0  0  0  0  0  0  0  0
   -7.1537    0.6992   -1.6165 C   0  0  0  0  0  0  0  0  0  0  0  0
   -7.5445    0.7804   -0.3328 C   0  0  0  0  0  0  0  0  0  0  0  0
   -7.2479    1.9743    0.4716 C   0  0  0  0  0  0  0  0  0  0  0  0
   -8.2030    3.0049    0.4702 C   0  0  0  0  0  0  0  0  0  0  0  0
   -7.9890    4.1786    1.1902 C   0  0  0  0  0  0  0  0  0  0  0  0
   -6.8137    4.3384    1.9139 C   0  0  0  0  0  0  0  0  0  0  0  0
   -5.8545    3.3242    1.9205 C   0  0  0  0  0  0  0  0  0  0  0  0
   -6.0526    2.1237    1.2096 C   0  0  0  0  0  0  0  0  0  0  0  0
   -4.9730    1.0445    1.2312 C   0  0  0  0  0  0  0  0  0  0  0  0
   -4.5279    0.6469    2.6563 C   0  0  0  0  0  0  0  0  0  0  0  0
   -3.0993    1.0765    2.9763 C   0  0  0  0  0  0  0  0  0  0  0  0
   -2.1483    0.5822    1.9822 N   0  0  0  0  0  0  0  0  0  0  0  0
   -0.8634    0.2145    2.3972 C   0  0  0  0  0  0  0  0  0  0  0  0
   -0.5162    0.3604    3.5758 O   0  0  0  0  0  0  0  0  0  0  0  0
    0.0841   -0.3907    1.3200 C   0  0  0  0  0  0  0  0  0  0  0  0
    1.3596   -1.1279    1.8168 C   0  0  0  0  0  0  0  0  0  0  0  0
    2.1394   -0.5189    0.6125 C   0  0  0  0  0  0  0  0  0  0  0  0
    3.5413   -0.0261    1.0031 C   0  0  0  0  0  0  0  0  0  0  0  0
    4.3939    0.1812   -0.2467 C   0  0  0  0  0  0  0  0  0  0  0  0
    4.5794   -1.1046   -0.9447 N   0  0  0  0  0  0  0  0  0  0  0  0
    5.2365   -0.9675   -2.1834 C   0  0  0  0  0  0  0  0  0  0  0  0
    4.5145   -1.0249   -3.3917 C   0  0  0  0  0  0  0  0  0  0  0  0
    5.1388   -0.8665   -4.6312 C   0  0  0  0  0  0  0  0  0  0  0  0
    6.5075   -0.6469   -4.6941 C   0  0  0  0  0  0  0  0  0  0  0  0
    7.2504   -0.5823   -3.5167 C   0  0  0  0  0  0  0  0  0  0  0  0
    6.6378   -0.7330   -2.2573 C   0  0  0  0  0  0  0  0  0  0  0  0
    7.5160   -0.6824   -1.0638 C   0  0  0  0  0  0  0  0  0  0  0  0
    7.6050   -1.7277   -0.2213 C   0  0  0  0  0  0  0  0  0  0  0  0
    8.4563   -1.7214    1.0148 C   0  0  0  0  0  0  0  0  0  0  0  0
    8.9306   -0.3818    1.3974 N   0  0  0  0  0  0  0  0  0  0  0  0
    9.9399   -0.4749    2.4478 C   0  0  0  0  0  0  0  0  0  0  0  0
    9.4469    0.3359    0.2248 C   0  0  0  0  0  0  0  0  0  0  0  0
    8.3397    0.5591   -0.8222 C   0  0  0  0  0  0  0  0  0  0  0  0
    3.4940   -2.0875   -0.8211 C   0  0  0  0  0  0  0  0  0  0  0  0
    2.1445   -1.3914   -0.6597 C   0  0  0  0  0  0  0  0  0  0  0  0
    1.0403    0.5883    0.5887 C   0  0  0  0  0  0  0  0  0  0  0  0
   -2.5847    0.5512    0.5880 C   0  0  0  0  0  0  0  0  0  0  0  0
   -3.7886    1.4501    0.3377 C   0  0  0  0  0  0  0  0  0  0  0  0
   -8.3180   -0.3343    0.3207 C   0  0  0  0  0  0  0  0  0  0  0  0
   -8.8439   -1.3536   -0.7064 C   0  0  0  0  0  0  0  0  0  0  0  0
   -8.4874   -3.6698   -2.0047 H   0  0  0  0  0  0  0  0  0  0  0  0
   -7.4710   -3.0344   -3.2900 H   0  0  0  0  0  0  0  0  0  0  0  0
   -9.1543   -2.4830   -3.1456 H   0  0  0  0  0  0  0  0  0  0  0  0
   -6.5018   -0.7405   -3.0248 H   0  0  0  0  0  0  0  0  0  0  0  0
   -8.1908   -0.2430   -3.2030 H   0  0  0  0  0  0  0  0  0  0  0  0
   -6.6226    1.5226   -2.0860 H   0  0  0  0  0  0  0  0  0  0  0  0
   -9.1229    2.8954   -0.1003 H   0  0  0  0  0  0  0  0  0  0  0  0
   -8.7364    4.9671    1.1806 H   0  0  0  0  0  0  0  0  0  0  0  0
   -6.6388    5.2544    2.4725 H   0  0  0  0  0  0  0  0  0  0  0  0
   -4.9414    3.4857    2.4881 H   0  0  0  0  0  0  0  0  0  0  0  0
   -5.3888    0.1241    0.8046 H   0  0  0  0  0  0  0  0  0  0  0  0
   -4.5693   -0.4490    2.7295 H   0  0  0  0  0  0  0  0  0  0  0  0
   -5.2162    1.0214    3.4229 H   0  0  0  0  0  0  0  0  0  0  0  0
   -2.8282    0.7156    3.9742 H   0  0  0  0  0  0  0  0  0  0  0  0
   -3.0118    2.1685    2.9941 H   0  0  0  0  0  0  0  0  0  0  0  0
   -0.4619   -1.0361    0.6171 H   0  0  0  0  0  0  0  0  0  0  0  0
    1.7182   -0.7931    2.7981 H   0  0  0  0  0  0  0  0  0  0  0  0
    1.2887   -2.2198    1.8385 H   0  0  0  0  0  0  0  0  0  0  0  0
    4.0301   -0.7664    1.6504 H   0  0  0  0  0  0  0  0  0  0  0  0
    3.4869    0.9050    1.5787 H   0  0  0  0  0  0  0  0  0  0  0  0
    5.3573    0.6003    0.0586 H   0  0  0  0  0  0  0  0  0  0  0  0
    3.9062    0.9094   -0.9085 H   0  0  0  0  0  0  0  0  0  0  0  0
    3.4394   -1.1748   -3.3816 H   0  0  0  0  0  0  0  0  0  0  0  0
    4.5512   -0.9143   -5.5439 H   0  0  0  0  0  0  0  0  0  0  0  0
    6.9999   -0.5310   -5.6555 H   0  0  0  0  0  0  0  0  0  0  0  0
    8.3252   -0.4340   -3.5888 H   0  0  0  0  0  0  0  0  0  0  0  0
    7.0280   -2.6295   -0.4076 H   0  0  0  0  0  0  0  0  0  0  0  0
    7.8610   -2.1289    1.8407 H   0  0  0  0  0  0  0  0  0  0  0  0
    9.2976   -2.4063    0.8460 H   0  0  0  0  0  0  0  0  0  0  0  0
   10.8349   -1.0145    2.1176 H   0  0  0  0  0  0  0  0  0  0  0  0
    9.5338   -0.9859    3.3278 H   0  0  0  0  0  0  0  0  0  0  0  0
   10.2439    0.5247    2.7777 H   0  0  0  0  0  0  0  0  0  0  0  0
    9.8334    1.3186    0.5222 H   0  0  0  0  0  0  0  0  0  0  0  0
   10.2823   -0.2141   -0.2300 H   0  0  0  0  0  0  0  0  0  0  0  0
    7.6719    1.3594   -0.4783 H   0  0  0  0  0  0  0  0  0  0  0  0
    8.8141    0.9118   -1.7444 H   0  0  0  0  0  0  0  0  0  0  0  0
    3.6956   -2.7013    0.0660 H   0  0  0  0  0  0  0  0  0  0  0  0
    3.4667   -2.7871   -1.6648 H   0  0  0  0  0  0  0  0  0  0  0  0
    1.9554   -0.7637   -1.5393 H   0  0  0  0  0  0  0  0  0  0  0  0
    1.3447   -2.1402   -0.6299 H   0  0  0  0  0  0  0  0  0  0  0  0
    1.2783    1.4845    1.1751 H   0  0  0  0  0  0  0  0  0  0  0  0
    0.7073    0.9144   -0.4013 H   0  0  0  0  0  0  0  0  0  0  0  0
   -1.7593    0.8613   -0.0593 H   0  0  0  0  0  0  0  0  0  0  0  0
   -2.8277   -0.4898    0.3450 H   0  0  0  0  0  0  0  0  0  0  0  0
   -3.4975    2.4922    0.5240 H   0  0  0  0  0  0  0  0  0  0  0  0
   -4.0802    1.3963   -0.7182 H   0  0  0  0  0  0  0  0  0  0  0  0
   -9.1709    0.0661    0.8818 H   0  0  0  0  0  0  0  0  0  0  0  0
   -7.6660   -0.8466    1.0395 H   0  0  0  0  0  0  0  0  0  0  0  0
   -9.7350   -0.9503   -1.2070 H   0  0  0  0  0  0  0  0  0  0  0  0
   -9.1607   -2.2510   -0.1607 H   0  0  0  0  0  0  0  0  0  0  0  0
  1  2  1  0
  2  3  1  0
  3  4  1  0
  4  5  2  0
  5  6  1  0
  6  7  2  0
  7  8  1  0
  8  9  2  0
  9 10  1  0
 10 11  2  0
 11 12  1  0
 12 13  1  0
 13 14  1  0
 14 15  1  0
 15 16  1  0
 16 17  2  0
 16 18  1  0
 18 19  1  0
 19 20  1  0
 20 21  1  0
 21 22  1  0
 22 23  1  0
 23 24  1  0
 24 25  2  0
 25 26  1  0
 26 27  2  0
 27 28  1  0
 28 29  2  0
 29 30  1  0
 30 31  2  0
 31 32  1  0
 32 33  1  0
 33 34  1  0
 33 35  1  0
 35 36  1  0
 23 37  1  0
 37 38  1  0
 20 39  1  0
 15 40  1  0
 40 41  1  0
  5 42  1  0
 42 43  1  0
 43  2  1  0
 11  6  1  0
 41 12  1  0
 39 18  1  0
 38 20  1  0
 29 24  1  0
 36 30  1  0
  1 44  1  0
  1 45  1  0
  1 46  1  0
  3 47  1  0
  3 48  1  0
  4 49  1  0
  7 50  1  0
  8 51  1  0
  9 52  1  0
 10 53  1  0
 12 54  1  0
 13 55  1  0
 13 56  1  0
 14 57  1  0
 14 58  1  0
 18 59  1  0
 19 60  1  0
 19 61  1  0
 21 62  1  0
 21 63  1  0
 22 64  1  0
 22 65  1  0
 25 66  1  0
 26 67  1  0
 27 68  1  0
 28 69  1  0
 31 70  1  0
 32 71  1  0
 32 72  1  0
 34 73  1  0
 34 74  1  0
 34 75  1  0
 35 76  1  0
 35 77  1  0
 36 78  1  0
 36 79  1  0
 37 80  1  0
 37 81  1  0
 38 82  1  0
 38 83  1  0
 39 84  1  0
 39 85  1  0
 40 86  1  0
 40 87  1  0
 41 88  1  0
 41 89  1  0
 42 90  1  0
 42 91  1  0
 43 92  1  0
 43 93  1  0
M  END
$$$$

     RDKit          3D

 93 99  0  0  0  0  0  0  0  0999 V2000
    8.7918    1.5018    2.7800 C   0  0  0  0  0  0  0  0  0  0  0  0
    8.3839    0.5994    1.7067 N   0  0  0  0  0  0  0  0  0  0  0  0
    7.9304   -0.6871    2.2575 C   0  0  0  0  0  0  0  0  0  0  0  0
    7.2771   -1.5770    1.2380 C   0  0  0  0  0  0  0  0  0  0  0  0
    6.8481   -1.1280    0.0444 C   0  0  0  0  0  0  0  0  0  0  0  0
    6.2641   -2.0541   -0.9358 C   0  0  0  0  0  0  0  0  0  0  0  0
    7.1973   -2.7634   -1.7200 C   0  0  0  0  0  0  0  0  0  0  0  0
    6.7886   -3.6730   -2.6926 C   0  0  0  0  0  0  0  0  0  0  0  0
    5.4352   -3.8889   -2.9001 C   0  0  0  0  0  0  0  0  0  0  0  0
    4.4982   -3.1978   -2.1310 C   0  0  0  0  0  0  0  0  0  0  0  0
    4.8837   -2.2767   -1.1279 C   0  0  0  0  0  0  0  0  0  0  0  0
    3.7435   -1.5826   -0.3883 C   0  0  0  0  0  0  0  0  0  0  0  0
    3.3081   -0.2900   -1.1103 C   0  0  0  0  0  0  0  0  0  0  0  0
    2.8608    0.8139   -0.1531 C   0  0  0  0  0  0  0  0  0  0  0  0
    2.0370    0.2877    0.9310 N   0  0  0  0  0  0  0  0  0  0  0  0
    0.8464    0.8629    1.3895 C   0  0  0  0  0  0  0  0  0  0  0  0
    0.2695    0.3893    2.3771 O   0  0  0  0  0  0  0  0  0  0  0  0
    0.2963    2.0951    0.6167 C   0  0  0  0  0  0  0  0  0  0  0  0
   -0.3784    1.8425   -0.7560 C   0  0  0  0  0  0  0  0  0  0  0  0
   -1.7751    1.9884   -0.0871 C   0  0  0  0  0  0  0  0  0  0  0  0
   -2.4301    0.6565    0.3305 C   0  0  0  0  0  0  0  0  0  0  0  0
   -3.5106    0.2568   -0.6726 C   0  0  0  0  0  0  0  0  0  0  0  0
   -4.5801    1.2729   -0.6868 N   0  0  0  0  0  0  0  0  0  0  0  0
   -5.5457    1.0184   -1.6823 C   0  0  0  0  0  0  0  0  0  0  0  0
   -5.5015    1.6837   -2.9226 C   0  0  0  0  0  0  0  0  0  0  0  0
   -6.4242    1.4105   -3.9359 C   0  0  0  0  0  0  0  0  0  0  0  0
   -7.4151    0.4589   -3.7343 C   0  0  0  0  0  0  0  0  0  0  0  0
   -7.4835   -0.2177   -2.5183 C   0  0  0  0  0  0  0  0  0  0  0  0
   -6.5625    0.0477   -1.4864 C   0  0  0  0  0  0  0  0  0  0  0  0
   -6.7399   -0.6905   -0.2167 C   0  0  0  0  0  0  0  0  0  0  0  0
   -6.6019   -2.0291   -0.1691 C   0  0  0  0  0  0  0  0  0  0  0  0
   -6.7685   -2.8286    1.0933 C   0  0  0  0  0  0  0  0  0  0  0  0
   -7.4149   -2.1196    2.2078 N   0  0  0  0  0  0  0  0  0  0  0  0
   -8.8714   -2.1368    2.0842 C   0  0  0  0  0  0  0  0  0  0  0  0
   -6.8881   -0.7465    2.3058 C   0  0  0  0  0  0  0  0  0  0  0  0
   -7.0600    0.0975    1.0289 C   0  0  0  0  0  0  0  0  0  0  0  0
   -4.1667    2.6664   -0.4590 C   0  0  0  0  0  0  0  0  0  0  0  0
   -2.7224    2.8863   -0.9011 C   0  0  0  0  0  0  0  0  0  0  0  0
   -1.0486    2.7076    1.0880 C   0  0  0  0  0  0  0  0  0  0  0  0
    2.5808   -0.8334    1.6970 C   0  0  0  0  0  0  0  0  0  0  0  0
    3.8919   -1.3687    1.1232 C   0  0  0  0  0  0  0  0  0  0  0  0
    7.0161    0.3167   -0.3429 C   0  0  0  0  0  0  0  0  0  0  0  0
    7.3408    1.2074    0.8700 C   0  0  0  0  0  0  0  0  0  0  0  0
    7.9610    1.7530    3.4493 H   0  0  0  0  0  0  0  0  0  0  0  0
    9.1936    2.4335    2.3665 H   0  0  0  0  0  0  0  0  0  0  0  0
    9.5928    1.0524    3.3775 H   0  0  0  0  0  0  0  0  0  0  0  0
    8.7991   -1.2174    2.6657 H   0  0  0  0  0  0  0  0  0  0  0  0
    7.2180   -0.5387    3.0796 H   0  0  0  0  0  0  0  0  0  0  0  0
    7.1573   -2.6223    1.5107 H   0  0  0  0  0  0  0  0  0  0  0  0
    8.2643   -2.6016   -1.5715 H   0  0  0  0  0  0  0  0  0  0  0  0
    7.5271   -4.2064   -3.2844 H   0  0  0  0  0  0  0  0  0  0  0  0
    5.1042   -4.5930   -3.6587 H   0  0  0  0  0  0  0  0  0  0  0  0
    3.4426   -3.3864   -2.3229 H   0  0  0  0  0  0  0  0  0  0  0  0
    2.8857   -2.2703   -0.4658 H   0  0  0  0  0  0  0  0  0  0  0  0
    4.0986    0.1045   -1.7589 H   0  0  0  0  0  0  0  0  0  0  0  0
    2.4739   -0.5379   -1.7809 H   0  0  0  0  0  0  0  0  0  0  0  0
    2.3421    1.5886   -0.7202 H   0  0  0  0  0  0  0  0  0  0  0  0
    3.7306    1.2960    0.3092 H   0  0  0  0  0  0  0  0  0  0  0  0
    1.0645    2.8804    0.5710 H   0  0  0  0  0  0  0  0  0  0  0  0
   -0.1396    2.6203   -1.4924 H   0  0  0  0  0  0  0  0  0  0  0  0
   -0.1752    0.8714   -1.2188 H   0  0  0  0  0  0  0  0  0  0  0  0
   -1.6881   -0.1458    0.4076 H   0  0  0  0  0  0  0  0  0  0  0  0
   -2.8903    0.7602    1.3219 H   0  0  0  0  0  0  0  0  0  0  0  0
   -3.9109   -0.7196   -0.3807 H   0  0  0  0  0  0  0  0  0  0  0  0
   -3.0657    0.1502   -1.6710 H   0  0  0  0  0  0  0  0  0  0  0  0
   -4.7255    2.4153   -3.1254 H   0  0  0  0  0  0  0  0  0  0  0  0
   -6.3612    1.9396   -4.8828 H   0  0  0  0  0  0  0  0  0  0  0  0
   -8.1361    0.2441   -4.5180 H   0  0  0  0  0  0  0  0  0  0  0  0
   -8.2731   -0.9507   -2.3673 H   0  0  0  0  0  0  0  0  0  0  0  0
   -6.3323   -2.5882   -1.0607 H   0  0  0  0  0  0  0  0  0  0  0  0
   -7.3150   -3.7527    0.8673 H   0  0  0  0  0  0  0  0  0  0  0  0
   -5.7708   -3.1491    1.4194 H   0  0  0  0  0  0  0  0  0  0  0  0
   -9.2359   -1.6843    1.1560 H   0  0  0  0  0  0  0  0  0  0  0  0
   -9.2420   -3.1673    2.1245 H   0  0  0  0  0  0  0  0  0  0  0  0
   -9.3334   -1.6096    2.9265 H   0  0  0  0  0  0  0  0  0  0  0  0
   -5.8188   -0.8057    2.5519 H   0  0  0  0  0  0  0  0  0  0  0  0
   -7.3513   -0.2262    3.1535 H   0  0  0  0  0  0  0  0  0  0  0  0
   -6.4275    0.9854    1.1244 H   0  0  0  0  0  0  0  0  0  0  0  0
   -8.0954    0.4544    0.9600 H   0  0  0  0  0  0  0  0  0  0  0  0
   -4.8323    3.3846   -0.9523 H   0  0  0  0  0  0  0  0  0  0  0  0
   -4.2532    2.8690    0.6160 H   0  0  0  0  0  0  0  0  0  0  0  0
   -2.6287    2.6500   -1.9686 H   0  0  0  0  0  0  0  0  0  0  0  0
   -2.4549    3.9435   -0.7920 H   0  0  0  0  0  0  0  0  0  0  0  0
   -1.0553    3.8034    1.0295 H   0  0  0  0  0  0  0  0  0  0  0  0
   -1.3766    2.4345    2.0958 H   0  0  0  0  0  0  0  0  0  0  0  0
    2.7319   -0.5053    2.7322 H   0  0  0  0  0  0  0  0  0  0  0  0
    1.8216   -1.6249    1.7135 H   0  0  0  0  0  0  0  0  0  0  0  0
    4.6722   -0.6373    1.3464 H   0  0  0  0  0  0  0  0  0  0  0  0
    4.1646   -2.3025    1.6280 H   0  0  0  0  0  0  0  0  0  0  0  0
    7.8277    0.3925   -1.0781 H   0  0  0  0  0  0  0  0  0  0  0  0
    6.1106    0.7025   -0.8207 H   0  0  0  0  0  0  0  0  0  0  0  0
    7.6765    2.1816    0.4936 H   0  0  0  0  0  0  0  0  0  0  0  0
    6.4283    1.3857    1.4556 H   0  0  0  0  0  0  0  0  0  0  0  0
  1  2  1  0
  2  3  1  0
  3  4  1  0
  4  5  2  0
  5  6  1  0
  6  7  2  0
  7  8  1  0
  8  9  2  0
  9 10  1  0
 10 11  2  0
 11 12  1  0
 12 13  1  0
 13 14  1  0
 14 15  1  0
 15 16  1  0
 16 17  2  0
 16 18  1  0
 18 19  1  0
 19 20  1  0
 20 21  1  0
 21 22  1  0
 22 23  1  0
 23 24  1  0
 24 25  2  0
 25 26  1  0
 26 27  2  0
 27 28  1  0
 28 29  2  0
 29 30  1  0
 30 31  2  0
 31 32  1  0
 32 33  1  0
 33 34  1  0
 33 35  1  0
 35 36  1  0
 23 37  1  0
 37 38  1  0
 20 39  1  0
 15 40  1  0
 40 41  1  0
  5 42  1  0
 42 43  1  0
 43  2  1  0
 11  6  1  0
 41 12  1  0
 39 18  1  0
 38 20  1  0
 29 24  1  0
 36 30  1  0
  1 44  1  0
  1 45  1  0
  1 46  1  0
  3 47  1  0
  3 48  1  0
  4 49  1  0
  7 50  1  0
  8 51  1  0
  9 52  1  0
 10 53  1  0
 12 54  1  0
 13 55  1  0
 13 56  1  0
 14 57  1  0
 14 58  1  0
 18 59  1  0
 19 60  1  0
 19 61  1  0
 21 62  1  0
 21 63  1  0
 22 64  1  0
 22 65  1  0
 25 66  1  0
 26 67  1  0
 27 68  1  0
 28 69  1  0
 31 70  1  0
 32 71  1  0
 32 72  1  0
 34 73  1  0
 34 74  1  0
 34 75  1  0
 35 76  1  0
 35 77  1  0
 36 78  1  0
 36 79  1  0
 37 80  1  0
 37 81  1  0
 38 82  1  0
 38 83  1  0
 39 84  1  0
 39 85  1  0
 40 86  1  0
 40 87  1  0
 41 88  1  0
 41 89  1  0
 42 90  1  0
 42 91  1  0
 43 92  1  0
 43 93  1  0
M  END
$$$$

     RDKit          3D

 93 99  0  0  0  0  0  0  0  0999 V2000
    8.5354   -3.4889   -0.9298 C   0  0  0  0  0  0  0  0  0  0  0  0
    7.1392   -3.3266   -0.5277 N   0  0  0  0  0  0  0  0  0  0  0  0
    6.4108   -2.4401   -1.4465 C   0  0  0  0  0  0  0  0  0  0  0  0
    6.5776   -0.9684   -1.1836 C   0  0  0  0  0  0  0  0  0  0  0  0
    7.0524   -0.4756   -0.0257 C   0  0  0  0  0  0  0  0  0  0  0  0
    7.2807    0.9693    0.1472 C   0  0  0  0  0  0  0  0  0  0  0  0
    8.6111    1.3887   -0.0654 C   0  0  0  0  0  0  0  0  0  0  0  0
    8.9797    2.7284    0.0344 C   0  0  0  0  0  0  0  0  0  0  0  0
    8.0201    3.6789    0.3438 C   0  0  0  0  0  0  0  0  0  0  0  0
    6.6984    3.2848    0.5549 C   0  0  0  0  0  0  0  0  0  0  0  0
    6.2953    1.9303    0.4698 C   0  0  0  0  0  0  0  0  0  0  0  0
    4.8146    1.6564    0.7316 C   0  0  0  0  0  0  0  0  0  0  0  0
    4.4997    0.5864    1.7932 C   0  0  0  0  0  0  0  0  0  0  0  0
    3.6488   -0.5582    1.2531 C   0  0  0  0  0  0  0  0  0  0  0  0
    2.4367   -0.0684    0.5975 N   0  0  0  0  0  0  0  0  0  0  0  0
    1.2398   -0.7743    0.7684 C   0  0  0  0  0  0  0  0  0  0  0  0
    1.2068   -1.8089    1.4462 O   0  0  0  0  0  0  0  0  0  0  0  0
   -0.0295   -0.2009    0.0769 C   0  0  0  0  0  0  0  0  0  0  0  0
   -0.6582    1.0887    0.6707 C   0  0  0  0  0  0  0  0  0  0  0  0
   -2.0697    0.5061    0.3626 C   0  0  0  0  0  0  0  0  0  0  0  0
   -2.6301    0.8844   -1.0235 C   0  0  0  0  0  0  0  0  0  0  0  0
   -3.7756    1.8855   -0.8791 C   0  0  0  0  0  0  0  0  0  0  0  0
   -4.8619    1.2566   -0.1247 N   0  0  0  0  0  0  0  0  0  0  0  0
   -6.1285    1.8564   -0.0893 C   0  0  0  0  0  0  0  0  0  0  0  0
   -6.2629    3.2546   -0.1996 C   0  0  0  0  0  0  0  0  0  0  0  0
   -7.5069    3.8898   -0.1283 C   0  0  0  0  0  0  0  0  0  0  0  0
   -8.6604    3.1399    0.0496 C   0  0  0  0  0  0  0  0  0  0  0  0
   -8.5687    1.7543    0.1441 C   0  0  0  0  0  0  0  0  0  0  0  0
   -7.3220    1.1006    0.0692 C   0  0  0  0  0  0  0  0  0  0  0  0
   -7.3529   -0.3780    0.0876 C   0  0  0  0  0  0  0  0  0  0  0  0
   -7.7354   -1.0536    1.1873 C   0  0  0  0  0  0  0  0  0  0  0  0
   -7.7862   -2.5549    1.2513 C   0  0  0  0  0  0  0  0  0  0  0  0
   -7.7191   -3.2429   -0.0469 N   0  0  0  0  0  0  0  0  0  0  0  0
   -9.0281   -3.2945   -0.6961 C   0  0  0  0  0  0  0  0  0  0  0  0
   -6.7048   -2.6090   -0.9073 C   0  0  0  0  0  0  0  0  0  0  0  0
   -6.9299   -1.1070   -1.1633 C   0  0  0  0  0  0  0  0  0  0  0  0
   -4.4920    0.4362    1.0427 C   0  0  0  0  0  0  0  0  0  0  0  0
   -3.0699    0.7581    1.4997 C   0  0  0  0  0  0  0  0  0  0  0  0
   -1.3862   -0.8951    0.3890 C   0  0  0  0  0  0  0  0  0  0  0  0
    2.5604    1.1127   -0.2527 C   0  0  0  0  0  0  0  0  0  0  0  0
    4.0097    1.4732   -0.5634 C   0  0  0  0  0  0  0  0  0  0  0  0
    7.5106   -1.4033    1.0740 C   0  0  0  0  0  0  0  0  0  0  0  0
    7.0167   -2.8460    0.8580 C   0  0  0  0  0  0  0  0  0  0  0  0
    9.0886   -2.5446   -0.9695 H   0  0  0  0  0  0  0  0  0  0  0  0
    8.5926   -3.9553   -1.9199 H   0  0  0  0  0  0  0  0  0  0  0  0
    9.0569   -4.1627   -0.2408 H   0  0  0  0  0  0  0  0  0  0  0  0
    5.3404   -2.6729   -1.3803 H   0  0  0  0  0  0  0  0  0  0  0  0
    6.6949   -2.6570   -2.4838 H   0  0  0  0  0  0  0  0  0  0  0  0
    6.3034   -0.3034   -1.9977 H   0  0  0  0  0  0  0  0  0  0  0  0
    9.3767    0.6588   -0.3243 H   0  0  0  0  0  0  0  0  0  0  0  0
   10.0111    3.0245   -0.1352 H   0  0  0  0  0  0  0  0  0  0  0  0
    8.2947    4.7276    0.4206 H   0  0  0  0  0  0  0  0  0  0  0  0
    5.9714    4.0599    0.7936 H   0  0  0  0  0  0  0  0  0  0  0  0
    4.4172    2.5809    1.1799 H   0  0  0  0  0  0  0  0  0  0  0  0
    3.9273    1.0697    2.5982 H   0  0  0  0  0  0  0  0  0  0  0  0
    5.3992    0.2039    2.2799 H   0  0  0  0  0  0  0  0  0  0  0  0
    4.1972   -1.1463    0.5122 H   0  0  0  0  0  0  0  0  0  0  0  0
    3.3964   -1.2367    2.0746 H   0  0  0  0  0  0  0  0  0  0  0  0
    0.1102   -0.1355   -1.0117 H   0  0  0  0  0  0  0  0  0  0  0  0
   -0.4063    2.0189    0.1526 H   0  0  0  0  0  0  0  0  0  0  0  0
   -0.4456    1.2262    1.7386 H   0  0  0  0  0  0  0  0  0  0  0  0
   -3.0109   -0.0126   -1.5294 H   0  0  0  0  0  0  0  0  0  0  0  0
   -1.8494    1.3043   -1.6680 H   0  0  0  0  0  0  0  0  0  0  0  0
   -4.1251    2.1651   -1.8803 H   0  0  0  0  0  0  0  0  0  0  0  0
   -3.4165    2.7913   -0.3755 H   0  0  0  0  0  0  0  0  0  0  0  0
   -5.3867    3.8855   -0.3139 H   0  0  0  0  0  0  0  0  0  0  0  0
   -7.5669    4.9719   -0.2064 H   0  0  0  0  0  0  0  0  0  0  0  0
   -9.6294    3.6277    0.1043 H   0  0  0  0  0  0  0  0  0  0  0  0
   -9.4819    1.1734    0.2552 H   0  0  0  0  0  0  0  0  0  0  0  0
   -8.0058   -0.5217    2.0955 H   0  0  0  0  0  0  0  0  0  0  0  0
   -6.9411   -2.8914    1.8652 H   0  0  0  0  0  0  0  0  0  0  0  0
   -8.6871   -2.8642    1.7958 H   0  0  0  0  0  0  0  0  0  0  0  0
   -9.4643   -2.3064   -0.8767 H   0  0  0  0  0  0  0  0  0  0  0  0
   -8.9591   -3.8188   -1.6559 H   0  0  0  0  0  0  0  0  0  0  0  0
   -9.7326   -3.8668   -0.0819 H   0  0  0  0  0  0  0  0  0  0  0  0
   -6.6408   -3.1383   -1.8663 H   0  0  0  0  0  0  0  0  0  0  0  0
   -5.7218   -2.7462   -0.4360 H   0  0  0  0  0  0  0  0  0  0  0  0
   -7.7086   -0.9762   -1.9253 H   0  0  0  0  0  0  0  0  0  0  0  0
   -6.0067   -0.6911   -1.5802 H   0  0  0  0  0  0  0  0  0  0  0  0
   -5.1668    0.6074    1.8905 H   0  0  0  0  0  0  0  0  0  0  0  0
   -4.5530   -0.6229    0.7679 H   0  0  0  0  0  0  0  0  0  0  0  0
   -3.0228    1.8105    1.8099 H   0  0  0  0  0  0  0  0  0  0  0  0
   -2.8195    0.1632    2.3857 H   0  0  0  0  0  0  0  0  0  0  0  0
   -1.7234   -1.6135   -0.3646 H   0  0  0  0  0  0  0  0  0  0  0  0
   -1.4183   -1.3944    1.3653 H   0  0  0  0  0  0  0  0  0  0  0  0
    2.0189    0.9454   -1.1884 H   0  0  0  0  0  0  0  0  0  0  0  0
    2.0734    1.9427    0.2713 H   0  0  0  0  0  0  0  0  0  0  0  0
    4.0407    2.3930   -1.1604 H   0  0  0  0  0  0  0  0  0  0  0  0
    4.4385    0.6878   -1.1897 H   0  0  0  0  0  0  0  0  0  0  0  0
    7.1595   -1.0574    2.0513 H   0  0  0  0  0  0  0  0  0  0  0  0
    8.6072   -1.3974    1.1151 H   0  0  0  0  0  0  0  0  0  0  0  0
    5.9606   -2.9106    1.1528 H   0  0  0  0  0  0  0  0  0  0  0  0
    7.5481   -3.5213    1.5403 H   0  0  0  0  0  0  0  0  0  0  0  0
  1  2  1  0
  2  3  1  0
  3  4  1  0
  4  5  2  0
  5  6  1  0
  6  7  2  0
  7  8  1  0
  8  9  2  0
  9 10  1  0
 10 11  2  0
 11 12  1  0
 12 13  1  0
 13 14  1  0
 14 15  1  0
 15 16  1  0
 16 17  2  0
 16 18  1  0
 18 19  1  0
 19 20  1  0
 20 21  1  0
 21 22  1  0
 22 23  1  0
 23 24  1  0
 24 25  2  0
 25 26  1  0
 26 27  2  0
 27 28  1  0
 28 29  2  0
 29 30  1  0
 30 31  2  0
 31 32  1  0
 32 33  1  0
 33 34  1  0
 33 35  1  0
 35 36  1  0
 23 37  1  0
 37 38  1  0
 20 39  1  0
 15 40  1  0
 40 41  1  0
  5 42  1  0
 42 43  1  0
 43  2  1  0
 11  6  1  0
 41 12  1  0
 39 18  1  0
 38 20  1  0
 29 24  1  0
 36 30  1  0
  1 44  1  0
  1 45  1  0
  1 46  1  0
  3 47  1  0
  3 48  1  0
  4 49  1  0
  7 50  1  0
  8 51  1  0
  9 52  1  0
 10 53  1  0
 12 54  1  0
 13 55  1  0
 13 56  1  0
 14 57  1  0
 14 58  1  0
 18 59  1  0
 19 60  1  0
 19 61  1  0
 21 62  1  0
 21 63  1  0
 22 64  1  0
 22 65  1  0
 25 66  1  0
 26 67  1  0
 27 68  1  0
 28 69  1  0
 31 70  1  0
 32 71  1  0
 32 72  1  0
 34 73  1  0
 34 74  1  0
 34 75  1  0
 35 76  1  0
 35 77  1  0
 36 78  1  0
 36 79  1  0
 37 80  1  0
 37 81  1  0
 38 82  1  0
 38 83  1  0
 39 84  1  0
 39 85  1  0
 40 86  1  0
 40 87  1  0
 41 88  1  0
 41 89  1  0
 42 90  1  0
 42 91  1  0
 43 92  1  0
 43 93  1  0
M  END
$$$$
