
     RDKit          3D

 86 92  0  0  0  0  0  0  0  0999 V2000
   -6.4094    3.9916    1.4090 C   0  0  0  0  0  0  0  0  0  0  0  0
   -5.2273    3.5384    0.6778 N   0  0  0  0  0  0  0  0  0  0  0  0
   -5.5791    3.0355   -0.6591 C   0  0  0  0  0  0  0  0  0  0  0  0
   -6.0653    1.6136   -0.7057 C   0  0  0  0  0  0  0  0  0  0  0  0
   -5.9172    0.7510    0.3173 C   0  0  0  0  0  0  0  0  0  0  0  0
   -6.4058   -0.6407    0.2151 C   0  0  0  0  0  0  0  0  0  0  0  0
   -7.7968   -0.8317    0.1127 C   0  0  0  0  0  0  0  0  0  0  0  0
   -8.3420   -2.1122    0.0438 C   0  0  0  0  0  0  0  0  0  0  0  0
   -7.5035   -3.2193    0.0743 C   0  0  0  0  0  0  0  0  0  0  0  0
   -6.1206   -3.0459    0.1728 C   0  0  0  0  0  0  0  0  0  0  0  0
   -5.5411   -1.7652    0.2485 C   0  0  0  0  0  0  0  0  0  0  0  0
   -4.1408   -1.6019    0.3008 N   0  0  0  0  0  0  0  0  0  0  0  0
   -3.5665   -1.3446   -1.0342 C   0  0  0  0  0  0  0  0  0  0  0  0
   -2.0447   -1.2726   -0.9287 C   0  0  0  0  0  0  0  0  0  0  0  0
   -1.4746   -2.6241   -0.4533 C   0  0  0  0  0  0  0  0  0  0  0  0
   -2.4836   -3.4352    0.3773 C   0  0  0  0  0  0  0  0  0  0  0  0
   -3.3776   -2.4976    1.1840 C   0  0  0  0  0  0  0  0  0  0  0  0
   -0.0616   -2.4926    0.1868 C   0  0  0  0  0  0  0  0  0  0  0  0
    0.5796   -2.9050   -1.1626 C   0  0  0  0  0  0  0  0  0  0  0  0
    1.1926   -1.7901   -2.0584 C   0  0  0  0  0  0  0  0  0  0  0  0
    0.7050   -1.4825   -3.1538 O   0  0  0  0  0  0  0  0  0  0  0  0
    2.3328   -1.1347   -1.5821 N   0  0  0  0  0  0  0  0  0  0  0  0
    2.8794   -0.0231   -2.3624 C   0  0  0  0  0  0  0  0  0  0  0  0
    3.5853    0.9889   -1.4662 C   0  0  0  0  0  0  0  0  0  0  0  0
    4.7458    0.3251   -0.6985 C   0  0  0  0  0  0  0  0  0  0  0  0
    4.5358   -1.1807   -0.4758 C   0  0  0  0  0  0  0  0  0  0  0  0
    3.0502   -1.5053   -0.3611 C   0  0  0  0  0  0  0  0  0  0  0  0
    5.1678    1.1212    0.5812 C   0  0  0  0  0  0  0  0  0  0  0  0
    6.2221    1.8615   -0.2829 C   0  0  0  0  0  0  0  0  0  0  0  0
    7.5481    2.3061    0.3317 C   0  0  2  0  0  0  0  0  0  0  0  0
    8.3229    1.1772    1.0287 C   0  0  0  0  0  0  0  0  0  0  0  0
    9.5904    1.6249    1.5370 O   0  0  0  0  0  0  0  0  0  0  0  0
    9.5744    3.0030    1.9346 C   0  0  0  0  0  0  0  0  0  0  0  0
    8.1781    3.4734    2.3328 C   0  0  0  0  0  0  0  0  0  0  0  0
    7.2526    3.3854    1.2411 O   0  0  0  0  0  0  0  0  0  0  0  0
    6.1694    0.6538   -1.2554 C   0  0  0  0  0  0  0  0  0  0  0  0
   -0.8046   -3.4794   -1.5657 C   0  0  0  0  0  0  0  0  0  0  0  0
   -5.2249    1.1715    1.5889 C   0  0  0  0  0  0  0  0  0  0  0  0
   -4.4809    2.5098    1.4241 C   0  0  0  0  0  0  0  0  0  0  0  0
   -7.1655    3.2109    1.5428 H   0  0  0  0  0  0  0  0  0  0  0  0
   -6.8804    4.8301    0.8835 H   0  0  0  0  0  0  0  0  0  0  0  0
   -6.1266    4.3675    2.3987 H   0  0  0  0  0  0  0  0  0  0  0  0
   -4.6904    3.1052   -1.2993 H   0  0  0  0  0  0  0  0  0  0  0  0
   -6.3277    3.6898   -1.1229 H   0  0  0  0  0  0  0  0  0  0  0  0
   -6.5281    1.2928   -1.6350 H   0  0  0  0  0  0  0  0  0  0  0  0
   -8.4641    0.0272    0.0984 H   0  0  0  0  0  0  0  0  0  0  0  0
   -9.4179   -2.2422   -0.0327 H   0  0  0  0  0  0  0  0  0  0  0  0
   -7.9208   -4.2207    0.0140 H   0  0  0  0  0  0  0  0  0  0  0  0
   -5.4929   -3.9318    0.1659 H   0  0  0  0  0  0  0  0  0  0  0  0
   -3.8533   -2.1353   -1.7403 H   0  0  0  0  0  0  0  0  0  0  0  0
   -3.9337   -0.3930   -1.4330 H   0  0  0  0  0  0  0  0  0  0  0  0
   -1.7799   -0.4818   -0.2145 H   0  0  0  0  0  0  0  0  0  0  0  0
   -1.6244   -0.9786   -1.8958 H   0  0  0  0  0  0  0  0  0  0  0  0
   -3.1051   -4.0464   -0.2893 H   0  0  0  0  0  0  0  0  0  0  0  0
   -1.9703   -4.1325    1.0494 H   0  0  0  0  0  0  0  0  0  0  0  0
   -2.7529   -1.8705    1.8327 H   0  0  0  0  0  0  0  0  0  0  0  0
   -4.0248   -3.0721    1.8572 H   0  0  0  0  0  0  0  0  0  0  0  0
    0.1505   -3.2084    0.9906 H   0  0  0  0  0  0  0  0  0  0  0  0
    0.1968   -1.4958    0.5571 H   0  0  0  0  0  0  0  0  0  0  0  0
    1.3002   -3.7276   -1.0506 H   0  0  0  0  0  0  0  0  0  0  0  0
    3.5775   -0.4504   -3.0920 H   0  0  0  0  0  0  0  0  0  0  0  0
    2.0782    0.4734   -2.9200 H   0  0  0  0  0  0  0  0  0  0  0  0
    2.8534    1.3905   -0.7533 H   0  0  0  0  0  0  0  0  0  0  0  0
    3.9370    1.8343   -2.0684 H   0  0  0  0  0  0  0  0  0  0  0  0
    4.9527   -1.7401   -1.3239 H   0  0  0  0  0  0  0  0  0  0  0  0
    5.0660   -1.5273    0.4185 H   0  0  0  0  0  0  0  0  0  0  0  0
    2.9255   -2.5711   -0.1563 H   0  0  0  0  0  0  0  0  0  0  0  0
    2.5977   -0.9459    0.4655 H   0  0  0  0  0  0  0  0  0  0  0  0
    4.4032    1.7645    1.0276 H   0  0  0  0  0  0  0  0  0  0  0  0
    5.5856    0.4983    1.3794 H   0  0  0  0  0  0  0  0  0  0  0  0
    5.7725    2.7477   -0.7612 H   0  0  0  0  0  0  0  0  0  0  0  0
    8.1795    2.7334   -0.4576 H   0  0  0  0  0  0  0  0  0  0  0  0
    8.5302    0.3470    0.3489 H   0  0  0  0  0  0  0  0  0  0  0  0
    7.7633    0.7748    1.8798 H   0  0  0  0  0  0  0  0  0  0  0  0
    9.9504    3.5914    1.0902 H   0  0  0  0  0  0  0  0  0  0  0  0
   10.2752    3.1186    2.7666 H   0  0  0  0  0  0  0  0  0  0  0  0
    7.7827    2.8640    3.1531 H   0  0  0  0  0  0  0  0  0  0  0  0
    8.2010    4.5150    2.6668 H   0  0  0  0  0  0  0  0  0  0  0  0
    6.2224    0.9099   -2.3181 H   0  0  0  0  0  0  0  0  0  0  0  0
    6.9107   -0.1290   -1.0622 H   0  0  0  0  0  0  0  0  0  0  0  0
   -1.1385   -3.2765   -2.5880 H   0  0  0  0  0  0  0  0  0  0  0  0
   -0.8718   -4.5637   -1.4075 H   0  0  0  0  0  0  0  0  0  0  0  0
   -5.9770    1.2632    2.3827 H   0  0  0  0  0  0  0  0  0  0  0  0
   -4.5019    0.4224    1.9263 H   0  0  0  0  0  0  0  0  0  0  0  0
   -4.1968    2.8945    2.4116 H   0  0  0  0  0  0  0  0  0  0  0  0
   -3.5319    2.3271    0.9010 H   0  0  0  0  0  0  0  0  0  0  0  0
  1  2  1  0
  2  3  1  0
  3  4  1  0
  4  5  2  0
  5  6  1  0
  6  7  2  0
  7  8  1  0
  8  9  2  0
  9 10  1  0
 10 11  2  0
 11 12  1  0
 12 13  1  0
 13 14  1  0
 14 15  1  0
 15 16  1  0
 16 17  1  0
 15 18  1  0
 18 19  1  0
 19 20  1  0
 20 21  2  0
 20 22  1  0
 22 23  1  0
 23 24  1  0
 24 25  1  0
 25 26  1  0
 26 27  1  0
 25 28  1  0
 28 29  1  0
 29 30  1  0
 30 31  1  0
 31 32  1  0
 32 33  1  0
 33 34  1  0
 34 35  1  0
 29 36  1  0
 19 37  1  0
  5 38  1  0
 38 39  1  0
 39  2  1  0
 11  6  1  0
 17 12  1  0
 27 22  1  0
 35 30  1  0
 37 15  1  0
 36 25  1  0
  1 40  1  0
  1 41  1  0
  1 42  1  0
  3 43  1  0
  3 44  1  0
  4 45  1  0
  7 46  1  0
  8 47  1  0
  9 48  1  0
 10 49  1  0
 13 50  1  0
 13 51  1  0
 14 52  1  0
 14 53  1  0
 16 54  1  0
 16 55  1  0
 17 56  1  0
 17 57  1  0
 18 58  1  0
 18 59  1  0
 19 60  1  0
 23 61  1  0
 23 62  1  0
 24 63  1  0
 24 64  1  0
 26 65  1  0
 26 66  1  0
 27 67  1  0
 27 68  1  0
 28 69  1  0
 28 70  1  0
 29 71  1  0
 30 72  1  6
 31 73  1  0
 31 74  1  0
 33 75  1  0
 33 76  1  0
 34 77  1  0
 34 78  1  0
 36 79  1  0
 36 80  1  0
 37 81  1  0
 37 82  1  0
 38 83  1  0
 38 84  1  0
 39 85  1  0
 39 86  1  0
M  END
$$$$

     RDKit          3D

 86 92  0  0  0  0  0  0  0  0999 V2000
   -5.7007   -2.0465   -3.3430 C   0  0  0  0  0  0  0  0  0  0  0  0
   -6.1482   -1.0930   -2.3325 N   0  0  0  0  0  0  0  0  0  0  0  0
   -6.6046   -1.7931   -1.1227 C   0  0  0  0  0  0  0  0  0  0  0  0
   -6.8480   -0.8816    0.0466 C   0  0  0  0  0  0  0  0  0  0  0  0
   -6.4002    0.3867    0.0903 C   0  0  0  0  0  0  0  0  0  0  0  0
   -6.6622    1.2551    1.2580 C   0  0  0  0  0  0  0  0  0  0  0  0
   -8.0020    1.6403    1.4653 C   0  0  0  0  0  0  0  0  0  0  0  0
   -8.3459    2.5232    2.4850 C   0  0  0  0  0  0  0  0  0  0  0  0
   -7.3531    3.0382    3.3060 C   0  0  0  0  0  0  0  0  0  0  0  0
   -6.0200    2.6614    3.1141 C   0  0  0  0  0  0  0  0  0  0  0  0
   -5.6363    1.7562    2.1050 C   0  0  0  0  0  0  0  0  0  0  0  0
   -4.2958    1.3672    1.9653 N   0  0  0  0  0  0  0  0  0  0  0  0
   -3.2253    2.2875    2.3610 C   0  0  0  0  0  0  0  0  0  0  0  0
   -1.8983    1.7697    1.8080 C   0  0  0  0  0  0  0  0  0  0  0  0
   -1.5693    0.3823    2.3947 C   0  0  0  0  0  0  0  0  0  0  0  0
   -2.8061   -0.3303    2.9638 C   0  0  0  0  0  0  0  0  0  0  0  0
   -4.0246   -0.0752    2.0781 C   0  0  0  0  0  0  0  0  0  0  0  0
   -0.3714    0.3598    3.3869 C   0  0  0  0  0  0  0  0  0  0  0  0
    0.5628   -0.1127    2.2446 C   0  0  0  0  0  0  0  0  0  0  0  0
    1.5307    0.9310    1.6103 C   0  0  0  0  0  0  0  0  0  0  0  0
    1.4699    2.1385    1.8728 O   0  0  0  0  0  0  0  0  0  0  0  0
    2.5039    0.4435    0.7316 N   0  0  0  0  0  0  0  0  0  0  0  0
    2.6124   -0.9581    0.3258 C   0  0  0  0  0  0  0  0  0  0  0  0
    3.2995   -1.0966   -1.0281 C   0  0  0  0  0  0  0  0  0  0  0  0
    4.7155   -0.5046   -0.9811 C   0  0  0  0  0  0  0  0  0  0  0  0
    4.8410    0.6880   -0.0121 C   0  0  0  0  0  0  0  0  0  0  0  0
    3.4926    1.3735    0.1823 C   0  0  0  0  0  0  0  0  0  0  0  0
    5.8599   -1.5560   -0.8110 C   0  0  0  0  0  0  0  0  0  0  0  0
    6.6631   -0.7932   -1.8971 C   0  0  0  0  0  0  0  0  0  0  0  0
    7.4618   -1.6358   -2.8912 C   0  0  2  0  0  0  0  0  0  0  0  0
    8.6708   -2.2968   -2.2066 C   0  0  0  0  0  0  0  0  0  0  0  0
    9.6840   -1.3615   -1.8216 O   0  0  0  0  0  0  0  0  0  0  0  0
    9.8673   -0.3031   -2.7708 C   0  0  0  0  0  0  0  0  0  0  0  0
    9.2299   -0.5909   -4.1268 C   0  0  0  0  0  0  0  0  0  0  0  0
    7.8195   -0.7983   -4.0034 O   0  0  0  0  0  0  0  0  0  0  0  0
    5.3020   -0.2486   -2.4051 C   0  0  0  0  0  0  0  0  0  0  0  0
   -0.7044   -0.4945    1.4427 C   0  0  0  0  0  0  0  0  0  0  0  0
   -5.6023    0.9630   -1.0518 C   0  0  0  0  0  0  0  0  0  0  0  0
   -5.0870   -0.1282   -2.0063 C   0  0  0  0  0  0  0  0  0  0  0  0
   -5.4259   -1.5262   -4.2672 H   0  0  0  0  0  0  0  0  0  0  0  0
   -4.8365   -2.6316   -3.0081 H   0  0  0  0  0  0  0  0  0  0  0  0
   -6.5080   -2.7407   -3.6017 H   0  0  0  0  0  0  0  0  0  0  0  0
   -5.8785   -2.5540   -0.8078 H   0  0  0  0  0  0  0  0  0  0  0  0
   -7.5439   -2.3102   -1.3525 H   0  0  0  0  0  0  0  0  0  0  0  0
   -7.3998   -1.3004    0.8833 H   0  0  0  0  0  0  0  0  0  0  0  0
   -8.7831    1.2655    0.8069 H   0  0  0  0  0  0  0  0  0  0  0  0
   -9.3824    2.8153    2.6270 H   0  0  0  0  0  0  0  0  0  0  0  0
   -7.6094    3.7321    4.1021 H   0  0  0  0  0  0  0  0  0  0  0  0
   -5.2818    3.0728    3.7958 H   0  0  0  0  0  0  0  0  0  0  0  0
   -3.1642    2.3777    3.4524 H   0  0  0  0  0  0  0  0  0  0  0  0
   -3.4130    3.2846    1.9448 H   0  0  0  0  0  0  0  0  0  0  0  0
   -1.9786    1.7055    0.7150 H   0  0  0  0  0  0  0  0  0  0  0  0
   -1.1079    2.4948    2.0258 H   0  0  0  0  0  0  0  0  0  0  0  0
   -3.0149    0.0378    3.9772 H   0  0  0  0  0  0  0  0  0  0  0  0
   -2.6327   -1.4089    3.0573 H   0  0  0  0  0  0  0  0  0  0  0  0
   -3.8345   -0.4809    1.0779 H   0  0  0  0  0  0  0  0  0  0  0  0
   -4.8758   -0.6176    2.5081 H   0  0  0  0  0  0  0  0  0  0  0  0
   -0.4613   -0.3822    4.1909 H   0  0  0  0  0  0  0  0  0  0  0  0
   -0.1194    1.3171    3.8537 H   0  0  0  0  0  0  0  0  0  0  0  0
    1.1242   -0.9987    2.5747 H   0  0  0  0  0  0  0  0  0  0  0  0
    3.1824   -1.4777    1.1048 H   0  0  0  0  0  0  0  0  0  0  0  0
    1.6190   -1.4108    0.2768 H   0  0  0  0  0  0  0  0  0  0  0  0
    3.3192   -2.1492   -1.3327 H   0  0  0  0  0  0  0  0  0  0  0  0
    2.7029   -0.5642   -1.7808 H   0  0  0  0  0  0  0  0  0  0  0  0
    5.5781    1.4162   -0.3692 H   0  0  0  0  0  0  0  0  0  0  0  0
    5.1933    0.3337    0.9654 H   0  0  0  0  0  0  0  0  0  0  0  0
    3.6111    2.2377    0.8441 H   0  0  0  0  0  0  0  0  0  0  0  0
    3.0994    1.7389   -0.7737 H   0  0  0  0  0  0  0  0  0  0  0  0
    6.3366   -1.6020    0.1729 H   0  0  0  0  0  0  0  0  0  0  0  0
    5.5842   -2.5778   -1.1003 H   0  0  0  0  0  0  0  0  0  0  0  0
    7.2754    0.0075   -1.4591 H   0  0  0  0  0  0  0  0  0  0  0  0
    6.8180   -2.4274   -3.2927 H   0  0  0  0  0  0  0  0  0  0  0  0
    9.1377   -3.0183   -2.8877 H   0  0  0  0  0  0  0  0  0  0  0  0
    8.3690   -2.8486   -1.3107 H   0  0  0  0  0  0  0  0  0  0  0  0
   10.9429   -0.1334   -2.8788 H   0  0  0  0  0  0  0  0  0  0  0  0
    9.4297    0.6004   -2.3330 H   0  0  0  0  0  0  0  0  0  0  0  0
    9.3858    0.2506   -4.8086 H   0  0  0  0  0  0  0  0  0  0  0  0
    9.6685   -1.4819   -4.5899 H   0  0  0  0  0  0  0  0  0  0  0  0
    4.8462   -0.8593   -3.1949 H   0  0  0  0  0  0  0  0  0  0  0  0
    5.3110    0.7919   -2.7436 H   0  0  0  0  0  0  0  0  0  0  0  0
   -0.7011   -0.1978    0.3888 H   0  0  0  0  0  0  0  0  0  0  0  0
   -0.9216   -1.5691    1.4809 H   0  0  0  0  0  0  0  0  0  0  0  0
   -6.2454    1.6579   -1.6076 H   0  0  0  0  0  0  0  0  0  0  0  0
   -4.7422    1.5395   -0.6954 H   0  0  0  0  0  0  0  0  0  0  0  0
   -4.7298    0.3633   -2.9198 H   0  0  0  0  0  0  0  0  0  0  0  0
   -4.2241   -0.6387   -1.5571 H   0  0  0  0  0  0  0  0  0  0  0  0
  1  2  1  0
  2  3  1  0
  3  4  1  0
  4  5  2  0
  5  6  1  0
  6  7  2  0
  7  8  1  0
  8  9  2  0
  9 10  1  0
 10 11  2  0
 11 12  1  0
 12 13  1  0
 13 14  1  0
 14 15  1  0
 15 16  1  0
 16 17  1  0
 15 18  1  0
 18 19  1  0
 19 20  1  0
 20 21  2  0
 20 22  1  0
 22 23  1  0
 23 24  1  0
 24 25  1  0
 25 26  1  0
 26 27  1  0
 25 28  1  0
 28 29  1  0
 29 30  1  0
 30 31  1  0
 31 32  1  0
 32 33  1  0
 33 34  1  0
 34 35  1  0
 29 36  1  0
 19 37  1  0
  5 38  1  0
 38 39  1  0
 39  2  1  0
 11  6  1  0
 17 12  1  0
 27 22  1  0
 35 30  1  0
 37 15  1  0
 36 25  1  0
  1 40  1  0
  1 41  1  0
  1 42  1  0
  3 43  1  0
  3 44  1  0
  4 45  1  0
  7 46  1  0
  8 47  1  0
  9 48  1  0
 10 49  1  0
 13 50  1  0
 13 51  1  0
 14 52  1  0
 14 53  1  0
 16 54  1  0
 16 55  1  0
 17 56  1  0
 17 57  1  0
 18 58  1  0
 18 59  1  0
 19 60  1  0
 23 61  1  0
 23 62  1  0
 24 63  1  0
 24 64  1  0
 26 65  1  0
 26 66  1  0
 27 67  1  0
 27 68  1  0
 28 69  1  0
 28 70  1  0
 29 71  1  0
 30 72  1  6
 31 73  1  0
 31 74  1  0
 33 75  1  0
 33 76  1  0
 34 77  1  0
 34 78  1  0
 36 79  1  0
 36 80  1  0
 37 81  1  0
 37 82  1  0
 38 83  1  0
 38 84  1  0
 39 85  1  0
 39 86  1  0
M  END
$$$$

     RDKit          3D

 86 92  0  0  0  0  0  0  0  0999 V2000
    6.0451    3.2256   -1.5124 C   0  0  0  0  0  0  0  0  0  0  0  0
    7.0621    3.3972   -0.4755 N   0  0  0  0  0  0  0  0  0  0  0  0
    8.0871    2.3449   -0.5488 C   0  0  0  0  0  0  0  0  0  0  0  0
    7.7355    1.0491    0.1288 C   0  0  0  0  0  0  0  0  0  0  0  0
    6.7003    0.9175    0.9800 C   0  0  0  0  0  0  0  0  0  0  0  0
    6.3982   -0.3778    1.6325 C   0  0  0  0  0  0  0  0  0  0  0  0
    7.4051   -0.9531    2.4325 C   0  0  0  0  0  0  0  0  0  0  0  0
    7.1868   -2.1470    3.1175 C   0  0  0  0  0  0  0  0  0  0  0  0
    5.9573   -2.7838    3.0139 C   0  0  0  0  0  0  0  0  0  0  0  0
    4.9474   -2.2270    2.2258 C   0  0  0  0  0  0  0  0  0  0  0  0
    5.1372   -1.0205    1.5248 C   0  0  0  0  0  0  0  0  0  0  0  0
    4.1245   -0.4983    0.6932 N   0  0  0  0  0  0  0  0  0  0  0  0
    4.3324   -0.8640   -0.7198 C   0  0  0  0  0  0  0  0  0  0  0  0
    3.1481   -0.3722   -1.5481 C   0  0  0  0  0  0  0  0  0  0  0  0
    1.8623   -1.0941   -1.1119 C   0  0  0  0  0  0  0  0  0  0  0  0
    1.8849   -1.5066    0.3743 C   0  0  0  0  0  0  0  0  0  0  0  0
    2.7382   -0.5353    1.1864 C   0  0  0  0  0  0  0  0  0  0  0  0
    0.5763   -0.3412   -1.5588 C   0  0  0  0  0  0  0  0  0  0  0  0
   -0.0298   -1.6841   -2.0419 C   0  0  0  0  0  0  0  0  0  0  0  0
   -1.0753   -2.3845   -1.1255 C   0  0  0  0  0  0  0  0  0  0  0  0
   -0.8199   -3.4302   -0.5146 O   0  0  0  0  0  0  0  0  0  0  0  0
   -2.3312   -1.7804   -1.0051 N   0  0  0  0  0  0  0  0  0  0  0  0
   -2.7480   -0.5894   -1.7475 C   0  0  0  0  0  0  0  0  0  0  0  0
   -4.2604   -0.5552   -1.9397 C   0  0  0  0  0  0  0  0  0  0  0  0
   -4.9786   -0.5390   -0.5823 C   0  0  0  0  0  0  0  0  0  0  0  0
   -4.2088   -1.2955    0.5184 C   0  0  0  0  0  0  0  0  0  0  0  0
   -3.3103   -2.3680   -0.0884 C   0  0  0  0  0  0  0  0  0  0  0  0
   -6.4872   -0.9231   -0.7012 C   0  0  0  0  0  0  0  0  0  0  0  0
   -6.8118    0.2067    0.3104 C   0  0  0  0  0  0  0  0  0  0  0  0
   -8.0903    0.9920    0.0504 C   0  0  2  0  0  0  0  0  0  0  0  0
   -8.1915    2.1825    1.0158 C   0  0  0  0  0  0  0  0  0  0  0  0
   -9.4281    2.8847    0.8220 O   0  0  0  0  0  0  0  0  0  0  0  0
  -10.5342    1.9921    1.0190 C   0  0  0  0  0  0  0  0  0  0  0  0
  -10.4404    0.8048    0.0626 C   0  0  0  0  0  0  0  0  0  0  0  0
   -9.2036    0.1020    0.2520 O   0  0  0  0  0  0  0  0  0  0  0  0
   -5.4784    0.8692   -0.1223 C   0  0  0  0  0  0  0  0  0  0  0  0
    1.4154   -2.2494   -2.0554 C   0  0  0  0  0  0  0  0  0  0  0  0
    5.8285    2.1015    1.3187 C   0  0  0  0  0  0  0  0  0  0  0  0
    6.4668    3.4305    0.8724 C   0  0  0  0  0  0  0  0  0  0  0  0
    5.5318    2.2596   -1.4654 H   0  0  0  0  0  0  0  0  0  0  0  0
    6.4994    3.3169   -2.5056 H   0  0  0  0  0  0  0  0  0  0  0  0
    5.2909    4.0176   -1.4442 H   0  0  0  0  0  0  0  0  0  0  0  0
    9.0046    2.7254   -0.0821 H   0  0  0  0  0  0  0  0  0  0  0  0
    8.3506    2.1465   -1.5953 H   0  0  0  0  0  0  0  0  0  0  0  0
    8.3730    0.2000   -0.1014 H   0  0  0  0  0  0  0  0  0  0  0  0
    8.3676   -0.4572    2.5378 H   0  0  0  0  0  0  0  0  0  0  0  0
    7.9745   -2.5742    3.7318 H   0  0  0  0  0  0  0  0  0  0  0  0
    5.7802   -3.7179    3.5401 H   0  0  0  0  0  0  0  0  0  0  0  0
    4.0077   -2.7658    2.1464 H   0  0  0  0  0  0  0  0  0  0  0  0
    5.2461   -0.3991   -1.1057 H   0  0  0  0  0  0  0  0  0  0  0  0
    4.4378   -1.9516   -0.8302 H   0  0  0  0  0  0  0  0  0  0  0  0
    3.0366    0.7105   -1.4012 H   0  0  0  0  0  0  0  0  0  0  0  0
    3.3463   -0.5248   -2.6150 H   0  0  0  0  0  0  0  0  0  0  0  0
    2.2984   -2.5180    0.4716 H   0  0  0  0  0  0  0  0  0  0  0  0
    0.8734   -1.5388    0.7935 H   0  0  0  0  0  0  0  0  0  0  0  0
    2.3252    0.4767    1.0875 H   0  0  0  0  0  0  0  0  0  0  0  0
    2.6813   -0.7764    2.2545 H   0  0  0  0  0  0  0  0  0  0  0  0
    0.0358    0.1747   -0.7593 H   0  0  0  0  0  0  0  0  0  0  0  0
    0.7243    0.3734   -2.3783 H   0  0  0  0  0  0  0  0  0  0  0  0
   -0.4107   -1.6297   -3.0713 H   0  0  0  0  0  0  0  0  0  0  0  0
   -2.2571   -0.5610   -2.7230 H   0  0  0  0  0  0  0  0  0  0  0  0
   -2.4145    0.2836   -1.1751 H   0  0  0  0  0  0  0  0  0  0  0  0
   -4.5417    0.3120   -2.5477 H   0  0  0  0  0  0  0  0  0  0  0  0
   -4.5628   -1.4463   -2.5058 H   0  0  0  0  0  0  0  0  0  0  0  0
   -3.5787   -0.5919    1.0781 H   0  0  0  0  0  0  0  0  0  0  0  0
   -4.8934   -1.7519    1.2422 H   0  0  0  0  0  0  0  0  0  0  0  0
   -2.7996   -2.9154    0.7107 H   0  0  0  0  0  0  0  0  0  0  0  0
   -3.9004   -3.0919   -0.6628 H   0  0  0  0  0  0  0  0  0  0  0  0
   -6.7550   -1.9333   -0.3771 H   0  0  0  0  0  0  0  0  0  0  0  0
   -6.9147   -0.7613   -1.6990 H   0  0  0  0  0  0  0  0  0  0  0  0
   -6.7720   -0.1556    1.3484 H   0  0  0  0  0  0  0  0  0  0  0  0
   -8.1266    1.3469   -0.9877 H   0  0  0  0  0  0  0  0  0  0  0  0
   -8.1382    1.8550    2.0614 H   0  0  0  0  0  0  0  0  0  0  0  0
   -7.3742    2.8908    0.8467 H   0  0  0  0  0  0  0  0  0  0  0  0
  -10.5286    1.6560    2.0623 H   0  0  0  0  0  0  0  0  0  0  0  0
  -11.4573    2.5523    0.8431 H   0  0  0  0  0  0  0  0  0  0  0  0
  -10.4957    1.1366   -0.9806 H   0  0  0  0  0  0  0  0  0  0  0  0
  -11.2597    0.1030    0.2439 H   0  0  0  0  0  0  0  0  0  0  0  0
   -5.5904    1.5987   -0.9341 H   0  0  0  0  0  0  0  0  0  0  0  0
   -4.9139    1.3470    0.6840 H   0  0  0  0  0  0  0  0  0  0  0  0
    1.8667   -2.2260   -3.0554 H   0  0  0  0  0  0  0  0  0  0  0  0
    1.5415   -3.2646   -1.6664 H   0  0  0  0  0  0  0  0  0  0  0  0
    4.8501    2.0004    0.8371 H   0  0  0  0  0  0  0  0  0  0  0  0
    5.6559    2.1462    2.4010 H   0  0  0  0  0  0  0  0  0  0  0  0
    7.2521    3.7087    1.5887 H   0  0  0  0  0  0  0  0  0  0  0  0
    5.7219    4.2336    0.9346 H   0  0  0  0  0  0  0  0  0  0  0  0
  1  2  1  0
  2  3  1  0
  3  4  1  0
  4  5  2  0
  5  6  1  0
  6  7  2  0
  7  8  1  0
  8  9  2  0
  9 10  1  0
 10 11  2  0
 11 12  1  0
 12 13  1  0
 13 14  1  0
 14 15  1  0
 15 16  1  0
 16 17  1  0
 15 18  1  0
 18 19  1  0
 19 20  1  0
 20 21  2  0
 20 22  1  0
 22 23  1  0
 23 24  1  0
 24 25  1  0
 25 26  1  0
 26 27  1  0
 25 28  1  0
 28 29  1  0
 29 30  1  0
 30 31  1  0
 31 32  1  0
 32 33  1  0
 33 34  1  0
 34 35  1  0
 29 36  1  0
 19 37  1  0
  5 38  1  0
 38 39  1  0
 39  2  1  0
 11  6  1  0
 17 12  1  0
 27 22  1  0
 35 30  1  0
 37 15  1  0
 36 25  1  0
  1 40  1  0
  1 41  1  0
  1 42  1  0
  3 43  1  0
  3 44  1  0
  4 45  1  0
  7 46  1  0
  8 47  1  0
  9 48  1  0
 10 49  1  0
 13 50  1  0
 13 51  1  0
 14 52  1  0
 14 53  1  0
 16 54  1  0
 16 55  1  0
 17 56  1  0
 17 57  1  0
 18 58  1  0
 18 59  1  0
 19 60  1  0
 23 61  1  0
 23 62  1  0
 24 63  1  0
 24 64  1  0
 26 65  1  0
 26 66  1  0
 27 67  1  0
 27 68  1  0
 28 69  1  0
 28 70  1  0
 29 71  1  0
 30 72  1  6
 31 73  1  0
 31 74  1  0
 33 75  1  0
 33 76  1  0
 34 77  1  0
 34 78  1  0
 36 79  1  0
 36 80  1  0
 37 81  1  0
 37 82  1  0
 38 83  1  0
 38 84  1  0
 39 85  1  0
 39 86  1  0
M  END
$$$$
