
     RDKit          3D

 81 86  0  0  0  0  0  0  0  0999 V2000
   -8.3408    2.8744   -1.3427 C   0  0  0  0  0  0  0  0  0  0  0  0
   -7.9736    1.7316   -0.5113 N   0  0  0  0  0  0  0  0  0  0  0  0
   -6.9962    2.1288    0.5139 C   0  0  0  0  0  0  0  0  0  0  0  0
   -6.3936    0.9654    1.2503 C   0  0  0  0  0  0  0  0  0  0  0  0
   -6.4942   -0.3014    0.8123 C   0  0  0  0  0  0  0  0  0  0  0  0
   -5.9042   -1.4138    1.5700 C   0  0  0  0  0  0  0  0  0  0  0  0
   -6.7297   -2.0570    2.5073 C   0  0  0  0  0  0  0  0  0  0  0  0
   -6.2470   -3.1107    3.2808 C   0  0  0  0  0  0  0  0  0  0  0  0
   -4.9308   -3.5296    3.1299 C   0  0  0  0  0  0  0  0  0  0  0  0
   -4.0988   -2.8973    2.2043 C   0  0  0  0  0  0  0  0  0  0  0  0
   -4.5664   -1.8356    1.4039 C   0  0  0  0  0  0  0  0  0  0  0  0
   -3.6214   -1.1655    0.4106 C   0  0  0  0  0  0  0  0  0  0  0  0
   -2.9495   -2.1608   -0.5611 C   0  0  0  0  0  0  0  0  0  0  0  0
   -1.4484   -2.3003   -0.3276 C   0  0  0  0  0  0  0  0  0  0  0  0
   -0.7713   -1.0048   -0.3652 N   0  0  0  0  0  0  0  0  0  0  0  0
    0.5101   -0.9241   -0.9243 C   0  0  0  0  0  0  0  0  0  0  0  0
    1.0743   -1.9393   -1.3504 O   0  0  0  0  0  0  0  0  0  0  0  0
    1.1611    0.4905   -1.0000 C   0  0  0  0  0  0  0  0  0  0  0  0
    2.4665    0.6476   -1.8187 C   0  0  0  0  0  0  0  0  0  0  0  0
    3.2854    0.7308   -0.4994 C   0  0  0  0  0  0  0  0  0  0  0  0
    4.2608    1.9180   -0.4952 C   0  0  0  0  0  0  0  0  0  0  0  0
    5.3245    1.7253    0.5845 C   0  0  0  0  0  0  0  0  0  0  0  0
    6.1318    0.5130    0.3880 N   0  0  0  0  0  0  0  0  0  0  0  0
    7.5329    0.7798    0.0128 C   0  0  0  0  0  0  0  0  0  0  0  0
    8.4172   -0.4720    0.0570 C   0  0  0  0  0  0  0  0  0  0  0  0
    9.8857   -0.0935   -0.1412 C   0  0  0  0  0  0  0  0  0  0  0  0
   10.0659    1.1249   -0.8667 O   0  0  0  0  0  0  0  0  0  0  0  0
    9.1157    1.2803   -1.9129 C   0  0  0  0  0  0  0  0  0  0  0  0
    7.7181    1.4984   -1.3386 C   0  0  0  0  0  0  0  0  0  0  0  0
    5.4572   -0.5394   -0.3824 C   0  0  0  0  0  0  0  0  0  0  0  0
    3.9614   -0.5822   -0.0662 C   0  0  0  0  0  0  0  0  0  0  0  0
    1.9411    0.9893    0.2395 C   0  0  0  0  0  0  0  0  0  0  0  0
   -1.4702    0.1387    0.2174 C   0  0  0  0  0  0  0  0  0  0  0  0
   -2.5999   -0.2831    1.1482 C   0  0  0  0  0  0  0  0  0  0  0  0
   -7.2116   -0.6288   -0.4701 C   0  0  0  0  0  0  0  0  0  0  0  0
   -7.4555    0.6252   -1.3287 C   0  0  0  0  0  0  0  0  0  0  0  0
   -8.7566    3.6803   -0.7277 H   0  0  0  0  0  0  0  0  0  0  0  0
   -9.1199    2.5931   -2.0599 H   0  0  0  0  0  0  0  0  0  0  0  0
   -7.4864    3.2724   -1.9019 H   0  0  0  0  0  0  0  0  0  0  0  0
   -7.4998    2.7714    1.2460 H   0  0  0  0  0  0  0  0  0  0  0  0
   -6.1747    2.7098    0.0749 H   0  0  0  0  0  0  0  0  0  0  0  0
   -5.8616    1.1916    2.1703 H   0  0  0  0  0  0  0  0  0  0  0  0
   -7.7599   -1.7316    2.6393 H   0  0  0  0  0  0  0  0  0  0  0  0
   -6.8974   -3.5985    4.0016 H   0  0  0  0  0  0  0  0  0  0  0  0
   -4.5478   -4.3477    3.7345 H   0  0  0  0  0  0  0  0  0  0  0  0
   -3.0719   -3.2439    2.1177 H   0  0  0  0  0  0  0  0  0  0  0  0
   -4.2059   -0.4987   -0.2346 H   0  0  0  0  0  0  0  0  0  0  0  0
   -3.0934   -1.7840   -1.5836 H   0  0  0  0  0  0  0  0  0  0  0  0
   -3.4286   -3.1465   -0.5379 H   0  0  0  0  0  0  0  0  0  0  0  0
   -1.0271   -2.9747   -1.0806 H   0  0  0  0  0  0  0  0  0  0  0  0
   -1.2432   -2.7448    0.6526 H   0  0  0  0  0  0  0  0  0  0  0  0
    0.4240    1.2300   -1.3447 H   0  0  0  0  0  0  0  0  0  0  0  0
    2.7223   -0.1821   -2.4852 H   0  0  0  0  0  0  0  0  0  0  0  0
    2.4770    1.5658   -2.4201 H   0  0  0  0  0  0  0  0  0  0  0  0
    3.7306    2.8634   -0.3307 H   0  0  0  0  0  0  0  0  0  0  0  0
    4.7501    2.0087   -1.4732 H   0  0  0  0  0  0  0  0  0  0  0  0
    4.8283    1.6386    1.5596 H   0  0  0  0  0  0  0  0  0  0  0  0
    5.9481    2.6247    0.6516 H   0  0  0  0  0  0  0  0  0  0  0  0
    7.9337    1.4468    0.7907 H   0  0  0  0  0  0  0  0  0  0  0  0
    8.1275   -1.1644   -0.7441 H   0  0  0  0  0  0  0  0  0  0  0  0
    8.3031   -1.0201    0.9997 H   0  0  0  0  0  0  0  0  0  0  0  0
   10.3691    0.0446    0.8318 H   0  0  0  0  0  0  0  0  0  0  0  0
   10.4230   -0.8977   -0.6561 H   0  0  0  0  0  0  0  0  0  0  0  0
    9.1436    0.3984   -2.5648 H   0  0  0  0  0  0  0  0  0  0  0  0
    9.4084    2.1413   -2.5225 H   0  0  0  0  0  0  0  0  0  0  0  0
    7.5550    2.5730   -1.1872 H   0  0  0  0  0  0  0  0  0  0  0  0
    6.9875    1.1846   -2.0911 H   0  0  0  0  0  0  0  0  0  0  0  0
    5.5882   -0.3987   -1.4613 H   0  0  0  0  0  0  0  0  0  0  0  0
    5.8864   -1.5135   -0.1231 H   0  0  0  0  0  0  0  0  0  0  0  0
    3.5099   -1.4473   -0.5626 H   0  0  0  0  0  0  0  0  0  0  0  0
    3.8315   -0.7409    1.0125 H   0  0  0  0  0  0  0  0  0  0  0  0
    1.7359    2.0411    0.4733 H   0  0  0  0  0  0  0  0  0  0  0  0
    1.7824    0.4120    1.1564 H   0  0  0  0  0  0  0  0  0  0  0  0
   -1.8636    0.7373   -0.6125 H   0  0  0  0  0  0  0  0  0  0  0  0
   -0.7593    0.7609    0.7680 H   0  0  0  0  0  0  0  0  0  0  0  0
   -2.1700   -0.8155    2.0067 H   0  0  0  0  0  0  0  0  0  0  0  0
   -3.0981    0.6051    1.5556 H   0  0  0  0  0  0  0  0  0  0  0  0
   -8.1733   -1.0993   -0.2285 H   0  0  0  0  0  0  0  0  0  0  0  0
   -6.6339   -1.3493   -1.0617 H   0  0  0  0  0  0  0  0  0  0  0  0
   -6.5237    0.9185   -1.8316 H   0  0  0  0  0  0  0  0  0  0  0  0
   -8.1761    0.3631   -2.1133 H   0  0  0  0  0  0  0  0  0  0  0  0
  1  2  1  0
  2  3  1  0
  3  4  1  0
  4  5  2  0
  5  6  1  0
  6  7  2  0
  7  8  1  0
  8  9  2  0
  9 10  1  0
 10 11  2  0
 11 12  1  0
 12 13  1  0
 13 14  1  0
 14 15  1  0
 15 16  1  0
 16 17  2  0
 16 18  1  0
 18 19  1  0
 19 20  1  0
 20 21  1  0
 21 22  1  0
 22 23  1  0
 23 24  1  0
 24 25  1  0
 25 26  1  0
 26 27  1  0
 27 28  1  0
 28 29  1  0
 23 30  1  0
 30 31  1  0
 20 32  1  0
 15 33  1  0
 33 34  1  0
  5 35  1  0
 35 36  1  0
 36  2  1  0
 11  6  1  0
 34 12  1  0
 32 18  1  0
 31 20  1  0
 29 24  1  0
  1 37  1  0
  1 38  1  0
  1 39  1  0
  3 40  1  0
  3 41  1  0
  4 42  1  0
  7 43  1  0
  8 44  1  0
  9 45  1  0
 10 46  1  0
 12 47  1  0
 13 48  1  0
 13 49  1  0
 14 50  1  0
 14 51  1  0
 18 52  1  0
 19 53  1  0
 19 54  1  0
 21 55  1  0
 21 56  1  0
 22 57  1  0
 22 58  1  0
 24 59  1  0
 25 60  1  0
 25 61  1  0
 26 62  1  0
 26 63  1  0
 28 64  1  0
 28 65  1  0
 29 66  1  0
 29 67  1  0
 30 68  1  0
 30 69  1  0
 31 70  1  0
 31 71  1  0
 32 72  1  0
 32 73  1  0
 33 74  1  0
 33 75  1  0
 34 76  1  0
 34 77  1  0
 35 78  1  0
 35 79  1  0
 36 80  1  0
 36 81  1  0
M  END
$$$$

     RDKit          3D

 81 86  0  0  0  0  0  0  0  0999 V2000
   -9.6490    1.7094    0.8158 C   0  0  0  0  0  0  0  0  0  0  0  0
   -8.3409    2.1380    1.3092 N   0  0  0  0  0  0  0  0  0  0  0  0
   -7.4781    2.6107    0.2153 C   0  0  0  0  0  0  0  0  0  0  0  0
   -6.7519    1.5321   -0.5402 C   0  0  0  0  0  0  0  0  0  0  0  0
   -6.6440    0.2710   -0.0866 C   0  0  0  0  0  0  0  0  0  0  0  0
   -5.9273   -0.7501   -0.8634 C   0  0  0  0  0  0  0  0  0  0  0  0
   -6.6815   -1.4989   -1.7826 C   0  0  0  0  0  0  0  0  0  0  0  0
   -6.0812   -2.4802   -2.5685 C   0  0  0  0  0  0  0  0  0  0  0  0
   -4.7185   -2.7218   -2.4468 C   0  0  0  0  0  0  0  0  0  0  0  0
   -3.9567   -1.9820   -1.5406 C   0  0  0  0  0  0  0  0  0  0  0  0
   -4.5408   -0.9857   -0.7326 C   0  0  0  0  0  0  0  0  0  0  0  0
   -3.6692   -0.1956    0.2402 C   0  0  0  0  0  0  0  0  0  0  0  0
   -3.0635   -1.1003    1.3281 C   0  0  0  0  0  0  0  0  0  0  0  0
   -1.9137   -0.3966    2.0369 C   0  0  0  0  0  0  0  0  0  0  0  0
   -0.8385   -0.0396    1.1129 N   0  0  0  0  0  0  0  0  0  0  0  0
    0.4539    0.1126    1.6300 C   0  0  0  0  0  0  0  0  0  0  0  0
    0.6530    0.0269    2.8487 O   0  0  0  0  0  0  0  0  0  0  0  0
    1.6024    0.3830    0.6195 C   0  0  0  0  0  0  0  0  0  0  0  0
    3.0604    0.2897    1.1518 C   0  0  0  0  0  0  0  0  0  0  0  0
    3.4789   -0.3604   -0.2049 C   0  0  0  0  0  0  0  0  0  0  0  0
    3.9966    0.6239   -1.2583 C   0  0  0  0  0  0  0  0  0  0  0  0
    5.3957    1.1275   -0.8699 C   0  0  0  0  0  0  0  0  0  0  0  0
    6.1605    0.1751   -0.0494 N   0  0  0  0  0  0  0  0  0  0  0  0
    7.5904    0.5296    0.0237 C   0  0  0  0  0  0  0  0  0  0  0  0
    8.2039    0.0280    1.3453 C   0  0  0  0  0  0  0  0  0  0  0  0
    9.7236   -0.0818    1.2605 C   0  0  0  0  0  0  0  0  0  0  0  0
   10.2456    0.8779    0.3488 O   0  0  0  0  0  0  0  0  0  0  0  0
    9.8821    0.6029   -1.0050 C   0  0  0  0  0  0  0  0  0  0  0  0
    8.4550    0.0739   -1.1568 C   0  0  0  0  0  0  0  0  0  0  0  0
    5.8705   -1.2080   -0.4197 C   0  0  0  0  0  0  0  0  0  0  0  0
    4.4155   -1.5732   -0.0885 C   0  0  0  0  0  0  0  0  0  0  0  0
    1.9832   -0.7542   -0.3669 C   0  0  0  0  0  0  0  0  0  0  0  0
   -1.1853    0.1284   -0.2971 C   0  0  0  0  0  0  0  0  0  0  0  0
   -2.6050    0.6553   -0.4839 C   0  0  0  0  0  0  0  0  0  0  0  0
   -7.2372   -0.1422    1.2341 C   0  0  0  0  0  0  0  0  0  0  0  0
   -7.6668    1.0753    2.0743 C   0  0  0  0  0  0  0  0  0  0  0  0
  -10.1725    2.5518    0.3497 H   0  0  0  0  0  0  0  0  0  0  0  0
   -9.5924    0.8993    0.0811 H   0  0  0  0  0  0  0  0  0  0  0  0
  -10.2807    1.3749    1.6463 H   0  0  0  0  0  0  0  0  0  0  0  0
   -6.7247    3.2881    0.6370 H   0  0  0  0  0  0  0  0  0  0  0  0
   -8.0598    3.2185   -0.4890 H   0  0  0  0  0  0  0  0  0  0  0  0
   -6.2960    1.8217   -1.4833 H   0  0  0  0  0  0  0  0  0  0  0  0
   -7.7488   -1.3156   -1.8897 H   0  0  0  0  0  0  0  0  0  0  0  0
   -6.6774   -3.0526   -3.2739 H   0  0  0  0  0  0  0  0  0  0  0  0
   -4.2453   -3.4868   -3.0570 H   0  0  0  0  0  0  0  0  0  0  0  0
   -2.8935   -2.1976   -1.4703 H   0  0  0  0  0  0  0  0  0  0  0  0
   -4.3000    0.5262    0.7723 H   0  0  0  0  0  0  0  0  0  0  0  0
   -3.8393   -1.3761    2.0529 H   0  0  0  0  0  0  0  0  0  0  0  0
   -2.6899   -2.0410    0.9051 H   0  0  0  0  0  0  0  0  0  0  0  0
   -2.2601    0.5308    2.5084 H   0  0  0  0  0  0  0  0  0  0  0  0
   -1.5208   -1.0417    2.8306 H   0  0  0  0  0  0  0  0  0  0  0  0
    1.4530    1.3470    0.1116 H   0  0  0  0  0  0  0  0  0  0  0  0
    3.5223    1.2518    1.3935 H   0  0  0  0  0  0  0  0  0  0  0  0
    3.1747   -0.3671    2.0228 H   0  0  0  0  0  0  0  0  0  0  0  0
    3.3237    1.4794   -1.3873 H   0  0  0  0  0  0  0  0  0  0  0  0
    4.0484    0.1173   -2.2310 H   0  0  0  0  0  0  0  0  0  0  0  0
    5.2859    2.0552   -0.2947 H   0  0  0  0  0  0  0  0  0  0  0  0
    5.9275    1.3899   -1.7927 H   0  0  0  0  0  0  0  0  0  0  0  0
    7.6547    1.6273    0.0686 H   0  0  0  0  0  0  0  0  0  0  0  0
    7.8043   -0.9417    1.6628 H   0  0  0  0  0  0  0  0  0  0  0  0
    7.9332    0.7362    2.1394 H   0  0  0  0  0  0  0  0  0  0  0  0
   10.1680    0.0975    2.2448 H   0  0  0  0  0  0  0  0  0  0  0  0
   10.0308   -1.0865    0.9450 H   0  0  0  0  0  0  0  0  0  0  0  0
    9.9909    1.5422   -1.5576 H   0  0  0  0  0  0  0  0  0  0  0  0
   10.6013   -0.1057   -1.4308 H   0  0  0  0  0  0  0  0  0  0  0  0
    8.4956   -1.0226   -1.1895 H   0  0  0  0  0  0  0  0  0  0  0  0
    8.0464    0.3962   -2.1209 H   0  0  0  0  0  0  0  0  0  0  0  0
    6.5194   -1.9190    0.1040 H   0  0  0  0  0  0  0  0  0  0  0  0
    6.0487   -1.3611   -1.4926 H   0  0  0  0  0  0  0  0  0  0  0  0
    4.3609   -2.0015    0.9197 H   0  0  0  0  0  0  0  0  0  0  0  0
    4.0980   -2.3627   -0.7814 H   0  0  0  0  0  0  0  0  0  0  0  0
    1.5761   -0.6556   -1.3778 H   0  0  0  0  0  0  0  0  0  0  0  0
    1.7346   -1.7562    0.0053 H   0  0  0  0  0  0  0  0  0  0  0  0
   -0.4869    0.8162   -0.7800 H   0  0  0  0  0  0  0  0  0  0  0  0
   -1.0667   -0.8486   -0.7776 H   0  0  0  0  0  0  0  0  0  0  0  0
   -2.8276    0.7658   -1.5520 H   0  0  0  0  0  0  0  0  0  0  0  0
   -2.6405    1.6703   -0.0636 H   0  0  0  0  0  0  0  0  0  0  0  0
   -8.1035   -0.7899    1.0509 H   0  0  0  0  0  0  0  0  0  0  0  0
   -6.5128   -0.7265    1.8142 H   0  0  0  0  0  0  0  0  0  0  0  0
   -8.3049    0.7428    2.9026 H   0  0  0  0  0  0  0  0  0  0  0  0
   -6.7771    1.5091    2.5513 H   0  0  0  0  0  0  0  0  0  0  0  0
  1  2  1  0
  2  3  1  0
  3  4  1  0
  4  5  2  0
  5  6  1  0
  6  7  2  0
  7  8  1  0
  8  9  2  0
  9 10  1  0
 10 11  2  0
 11 12  1  0
 12 13  1  0
 13 14  1  0
 14 15  1  0
 15 16  1  0
 16 17  2  0
 16 18  1  0
 18 19  1  0
 19 20  1  0
 20 21  1  0
 21 22  1  0
 22 23  1  0
 23 24  1  0
 24 25  1  0
 25 26  1  0
 26 27  1  0
 27 28  1  0
 28 29  1  0
 23 30  1  0
 30 31  1  0
 20 32  1  0
 15 33  1  0
 33 34  1  0
  5 35  1  0
 35 36  1  0
 36  2  1  0
 11  6  1  0
 34 12  1  0
 32 18  1  0
 31 20  1  0
 29 24  1  0
  1 37  1  0
  1 38  1  0
  1 39  1  0
  3 40  1  0
  3 41  1  0
  4 42  1  0
  7 43  1  0
  8 44  1  0
  9 45  1  0
 10 46  1  0
 12 47  1  0
 13 48  1  0
 13 49  1  0
 14 50  1  0
 14 51  1  0
 18 52  1  0
 19 53  1  0
 19 54  1  0
 21 55  1  0
 21 56  1  0
 22 57  1  0
 22 58  1  0
 24 59  1  0
 25 60  1  0
 25 61  1  0
 26 62  1  0
 26 63  1  0
 28 64  1  0
 28 65  1  0
 29 66  1  0
 29 67  1  0
 30 68  1  0
 30 69  1  0
 31 70  1  0
 31 71  1  0
 32 72  1  0
 32 73  1  0
 33 74  1  0
 33 75  1  0
 34 76  1  0
 34 77  1  0
 35 78  1  0
 35 79  1  0
 36 80  1  0
 36 81  1  0
M  END
$$$$

     RDKit          3D

 81 86  0  0  0  0  0  0  0  0999 V2000
   -8.9655    3.0118   -0.0767 C   0  0  0  0  0  0  0  0  0  0  0  0
   -7.8792    2.0698   -0.3329 N   0  0  0  0  0  0  0  0  0  0  0  0
   -7.9538    0.9306    0.5958 C   0  0  0  0  0  0  0  0  0  0  0  0
   -7.0068   -0.1832    0.2479 C   0  0  0  0  0  0  0  0  0  0  0  0
   -6.3993   -0.2718   -0.9479 C   0  0  0  0  0  0  0  0  0  0  0  0
   -5.4628   -1.3665   -1.2390 C   0  0  0  0  0  0  0  0  0  0  0  0
   -5.9891   -2.5177   -1.8492 C   0  0  0  0  0  0  0  0  0  0  0  0
   -5.1728   -3.6085   -2.1414 C   0  0  0  0  0  0  0  0  0  0  0  0
   -3.8218   -3.5633   -1.8202 C   0  0  0  0  0  0  0  0  0  0  0  0
   -3.2867   -2.4272   -1.2104 C   0  0  0  0  0  0  0  0  0  0  0  0
   -4.0894   -1.3076   -0.9134 C   0  0  0  0  0  0  0  0  0  0  0  0
   -3.4671   -0.0863   -0.2406 C   0  0  0  0  0  0  0  0  0  0  0  0
   -2.2600    0.4870   -1.0144 C   0  0  0  0  0  0  0  0  0  0  0  0
   -0.9261    0.2546   -0.3104 C   0  0  0  0  0  0  0  0  0  0  0  0
   -0.9343    0.7384    1.0689 N   0  0  0  0  0  0  0  0  0  0  0  0
    0.1898    1.2386    1.7354 C   0  0  0  0  0  0  0  0  0  0  0  0
    0.0893    1.6935    2.8823 O   0  0  0  0  0  0  0  0  0  0  0  0
    1.5487    1.1910    0.9849 C   0  0  0  0  0  0  0  0  0  0  0  0
    2.1707   -0.2027    0.6968 C   0  0  0  0  0  0  0  0  0  0  0  0
    3.5759    0.3908    1.0155 C   0  0  0  0  0  0  0  0  0  0  0  0
    4.3536    0.9151   -0.2015 C   0  0  0  0  0  0  0  0  0  0  0  0
    5.0166   -0.2523   -0.9419 C   0  0  0  0  0  0  0  0  0  0  0  0
    5.9024   -1.0669   -0.0877 N   0  0  0  0  0  0  0  0  0  0  0  0
    7.1665   -0.3882    0.3128 C   0  0  0  0  0  0  0  0  0  0  0  0
    8.0676   -1.2974    1.1776 C   0  0  0  0  0  0  0  0  0  0  0  0
    9.4084   -0.6380    1.4723 C   0  0  0  0  0  0  0  0  0  0  0  0
   10.0810   -0.2872    0.2688 O   0  0  0  0  0  0  0  0  0  0  0  0
    9.3340    0.6513   -0.4960 C   0  0  0  0  0  0  0  0  0  0  0  0
    7.9886    0.0712   -0.9118 C   0  0  0  0  0  0  0  0  0  0  0  0
    5.1068   -1.5941    1.0386 C   0  0  0  0  0  0  0  0  0  0  0  0
    4.4633   -0.4980    1.8934 C   0  0  0  0  0  0  0  0  0  0  0  0
    2.8299    1.4977    1.8116 C   0  0  0  0  0  0  0  0  0  0  0  0
   -2.2005    0.6794    1.7979 C   0  0  0  0  0  0  0  0  0  0  0  0
   -3.1358   -0.3807    1.2319 C   0  0  0  0  0  0  0  0  0  0  0  0
   -6.6703    0.7315   -2.0376 C   0  0  0  0  0  0  0  0  0  0  0  0
   -7.8997    1.6048   -1.7275 C   0  0  0  0  0  0  0  0  0  0  0  0
   -8.9237    3.3759    0.9559 H   0  0  0  0  0  0  0  0  0  0  0  0
   -9.9517    2.5644   -0.2454 H   0  0  0  0  0  0  0  0  0  0  0  0
   -8.8718    3.8910   -0.7237 H   0  0  0  0  0  0  0  0  0  0  0  0
   -8.9682    0.5126    0.6328 H   0  0  0  0  0  0  0  0  0  0  0  0
   -7.7060    1.2851    1.6035 H   0  0  0  0  0  0  0  0  0  0  0  0
   -6.8255   -0.9286    1.0174 H   0  0  0  0  0  0  0  0  0  0  0  0
   -7.0475   -2.5688   -2.0957 H   0  0  0  0  0  0  0  0  0  0  0  0
   -5.5937   -4.4925   -2.6124 H   0  0  0  0  0  0  0  0  0  0  0  0
   -3.1823   -4.4146   -2.0391 H   0  0  0  0  0  0  0  0  0  0  0  0
   -2.2290   -2.4303   -0.9614 H   0  0  0  0  0  0  0  0  0  0  0  0
   -4.2036    0.7259   -0.2382 H   0  0  0  0  0  0  0  0  0  0  0  0
   -2.4015    1.5736   -1.1020 H   0  0  0  0  0  0  0  0  0  0  0  0
   -2.2155    0.1092   -2.0427 H   0  0  0  0  0  0  0  0  0  0  0  0
   -0.6845   -0.8130   -0.2753 H   0  0  0  0  0  0  0  0  0  0  0  0
   -0.1355    0.7488   -0.8804 H   0  0  0  0  0  0  0  0  0  0  0  0
    1.5212    1.8308    0.0908 H   0  0  0  0  0  0  0  0  0  0  0  0
    1.8373   -0.9828    1.3925 H   0  0  0  0  0  0  0  0  0  0  0  0
    2.0274   -0.5741   -0.3222 H   0  0  0  0  0  0  0  0  0  0  0  0
    3.6906    1.4469   -0.8940 H   0  0  0  0  0  0  0  0  0  0  0  0
    5.1113    1.6398    0.1194 H   0  0  0  0  0  0  0  0  0  0  0  0
    5.5362    0.1142   -1.8319 H   0  0  0  0  0  0  0  0  0  0  0  0
    4.2349   -0.9112   -1.3433 H   0  0  0  0  0  0  0  0  0  0  0  0
    6.9354    0.5047    0.9072 H   0  0  0  0  0  0  0  0  0  0  0  0
    8.2431   -2.2414    0.6457 H   0  0  0  0  0  0  0  0  0  0  0  0
    7.5964   -1.5335    2.1368 H   0  0  0  0  0  0  0  0  0  0  0  0
    9.2835    0.2547    2.0967 H   0  0  0  0  0  0  0  0  0  0  0  0
   10.0504   -1.3343    2.0216 H   0  0  0  0  0  0  0  0  0  0  0  0
    9.9215    0.8981   -1.3862 H   0  0  0  0  0  0  0  0  0  0  0  0
    9.2072    1.5760    0.0797 H   0  0  0  0  0  0  0  0  0  0  0  0
    7.4601    0.8385   -1.4857 H   0  0  0  0  0  0  0  0  0  0  0  0
    8.1593   -0.7877   -1.5737 H   0  0  0  0  0  0  0  0  0  0  0  0
    4.3157   -2.2350    0.6256 H   0  0  0  0  0  0  0  0  0  0  0  0
    5.6942   -2.2687    1.6682 H   0  0  0  0  0  0  0  0  0  0  0  0
    3.8762   -0.9636    2.6943 H   0  0  0  0  0  0  0  0  0  0  0  0
    5.2345    0.1054    2.3867 H   0  0  0  0  0  0  0  0  0  0  0  0
    2.7310    1.2880    2.8839 H   0  0  0  0  0  0  0  0  0  0  0  0
    3.2209    2.5139    1.7004 H   0  0  0  0  0  0  0  0  0  0  0  0
   -2.6596    1.6733    1.7353 H   0  0  0  0  0  0  0  0  0  0  0  0
   -2.0077    0.4728    2.8565 H   0  0  0  0  0  0  0  0  0  0  0  0
   -2.6614   -1.3647    1.3402 H   0  0  0  0  0  0  0  0  0  0  0  0
   -4.0603   -0.4172    1.8209 H   0  0  0  0  0  0  0  0  0  0  0  0
   -6.8361    0.2252   -2.9962 H   0  0  0  0  0  0  0  0  0  0  0  0
   -5.7881    1.3736   -2.1557 H   0  0  0  0  0  0  0  0  0  0  0  0
   -8.8189    1.0393   -1.9338 H   0  0  0  0  0  0  0  0  0  0  0  0
   -7.8882    2.4608   -2.4136 H   0  0  0  0  0  0  0  0  0  0  0  0
  1  2  1  0
  2  3  1  0
  3  4  1  0
  4  5  2  0
  5  6  1  0
  6  7  2  0
  7  8  1  0
  8  9  2  0
  9 10  1  0
 10 11  2  0
 11 12  1  0
 12 13  1  0
 13 14  1  0
 14 15  1  0
 15 16  1  0
 16 17  2  0
 16 18  1  0
 18 19  1  0
 19 20  1  0
 20 21  1  0
 21 22  1  0
 22 23  1  0
 23 24  1  0
 24 25  1  0
 25 26  1  0
 26 27  1  0
 27 28  1  0
 28 29  1  0
 23 30  1  0
 30 31  1  0
 20 32  1  0
 15 33  1  0
 33 34  1  0
  5 35  1  0
 35 36  1  0
 36  2  1  0
 11  6  1  0
 34 12  1  0
 32 18  1  0
 31 20  1  0
 29 24  1  0
  1 37  1  0
  1 38  1  0
  1 39  1  0
  3 40  1  0
  3 41  1  0
  4 42  1  0
  7 43  1  0
  8 44  1  0
  9 45  1  0
 10 46  1  0
 12 47  1  0
 13 48  1  0
 13 49  1  0
 14 50  1  0
 14 51  1  0
 18 52  1  0
 19 53  1  0
 19 54  1  0
 21 55  1  0
 21 56  1  0
 22 57  1  0
 22 58  1  0
 24 59  1  0
 25 60  1  0
 25 61  1  0
 26 62  1  0
 26 63  1  0
 28 64  1  0
 28 65  1  0
 29 66  1  0
 29 67  1  0
 30 68  1  0
 30 69  1  0
 31 70  1  0
 31 71  1  0
 32 72  1  0
 32 73  1  0
 33 74  1  0
 33 75  1  0
 34 76  1  0
 34 77  1  0
 35 78  1  0
 35 79  1  0
 36 80  1  0
 36 81  1  0
M  END
$$$$
