
     RDKit          3D

 82 88  0  0  0  0  0  0  0  0999 V2000
   -8.1969   -2.3910   -1.7975 C   0  0  0  0  0  0  0  0  0  0  0  0
   -7.3573   -1.2200   -1.5626 N   0  0  0  0  0  0  0  0  0  0  0  0
   -7.3885   -0.8335   -0.1443 C   0  0  0  0  0  0  0  0  0  0  0  0
   -6.3612    0.2009    0.2220 C   0  0  0  0  0  0  0  0  0  0  0  0
   -5.3241    0.5086   -0.5756 C   0  0  0  0  0  0  0  0  0  0  0  0
   -4.3442    1.5367   -0.1943 C   0  0  0  0  0  0  0  0  0  0  0  0
   -4.5895    2.8465   -0.6410 C   0  0  0  0  0  0  0  0  0  0  0  0
   -3.7173    3.8856   -0.3233 C   0  0  0  0  0  0  0  0  0  0  0  0
   -2.5908    3.6276    0.4477 C   0  0  0  0  0  0  0  0  0  0  0  0
   -2.3366    2.3313    0.8995 C   0  0  0  0  0  0  0  0  0  0  0  0
   -3.1994    1.2614    0.5880 C   0  0  0  0  0  0  0  0  0  0  0  0
   -2.9054   -0.1461    1.1174 C   0  0  2  0  0  0  0  0  0  0  0  0
   -3.5023   -0.3517    2.5443 C   0  0  0  0  0  0  0  0  0  0  0  0
   -2.7310    0.2948    3.6210 N   0  0  0  0  0  0  0  0  0  0  0  0
   -3.2892    0.0100    4.9361 C   0  0  0  0  0  0  0  0  0  0  0  0
   -1.2927    0.0076    3.5426 C   0  0  0  0  0  0  0  0  0  0  0  0
   -0.8286   -0.8368    2.3384 C   0  0  0  0  0  0  0  0  0  0  0  0
   -1.4628   -0.4865    1.0670 N   0  0  0  0  0  0  0  0  0  0  0  0
   -0.9127   -0.8295   -0.1751 C   0  0  0  0  0  0  0  0  0  0  0  0
   -1.5993   -0.8139   -1.2039 O   0  0  0  0  0  0  0  0  0  0  0  0
    0.5879   -1.2324   -0.2033 C   0  0  0  0  0  0  0  0  0  0  0  0
    1.2151   -1.5701   -1.5858 C   0  0  0  0  0  0  0  0  0  0  0  0
    2.5112   -0.8321   -1.1466 C   0  0  0  0  0  0  0  0  0  0  0  0
    3.1097    0.0469   -2.2488 C   0  0  0  0  0  0  0  0  0  0  0  0
    4.2939    0.8404   -1.6965 C   0  0  0  0  0  0  0  0  0  0  0  0
    5.2938   -0.0848   -1.1375 N   0  0  0  0  0  0  0  0  0  0  0  0
    6.5693    0.4459   -0.8531 C   0  0  0  0  0  0  0  0  0  0  0  0
    6.8566    1.8148   -0.7294 C   0  0  0  0  0  0  0  0  0  0  0  0
    8.0608    2.3899   -0.4578 N   0  0  0  0  0  0  0  0  0  0  0  0
    9.0404    1.4815   -0.3195 C   0  0  0  0  0  0  0  0  0  0  0  0
   10.3469    1.7844   -0.0514 N   0  0  0  0  0  0  0  0  0  0  0  0
   11.0869    0.6309    0.0187 C   0  0  0  0  0  0  0  0  0  0  0  0
   10.2348   -0.4300   -0.2104 C   0  0  0  0  0  0  0  0  0  0  0  0
    8.9335    0.1014   -0.4223 C   0  0  0  0  0  0  0  0  0  0  0  0
    7.6606   -0.4261   -0.7007 C   0  0  0  0  0  0  0  0  0  0  0  0
    4.7772   -0.9477   -0.0569 C   0  0  0  0  0  0  0  0  0  0  0  0
    3.5845   -1.7623   -0.5635 C   0  0  0  0  0  0  0  0  0  0  0  0
    1.6288   -0.0833   -0.1046 C   0  0  0  0  0  0  0  0  0  0  0  0
   -5.1320   -0.1787   -1.9021 C   0  0  0  0  0  0  0  0  0  0  0  0
   -5.9768   -1.4594   -2.0116 C   0  0  0  0  0  0  0  0  0  0  0  0
   -9.2298   -2.1919   -1.4908 H   0  0  0  0  0  0  0  0  0  0  0  0
   -7.8396   -3.2736   -1.2547 H   0  0  0  0  0  0  0  0  0  0  0  0
   -8.2278   -2.6337   -2.8655 H   0  0  0  0  0  0  0  0  0  0  0  0
   -7.2331   -1.7035    0.5071 H   0  0  0  0  0  0  0  0  0  0  0  0
   -8.3801   -0.4247    0.0840 H   0  0  0  0  0  0  0  0  0  0  0  0
   -6.4943    0.7046    1.1754 H   0  0  0  0  0  0  0  0  0  0  0  0
   -5.4699    3.0594   -1.2440 H   0  0  0  0  0  0  0  0  0  0  0  0
   -3.9195    4.8924   -0.6772 H   0  0  0  0  0  0  0  0  0  0  0  0
   -1.9083    4.4338    0.7019 H   0  0  0  0  0  0  0  0  0  0  0  0
   -1.4517    2.1606    1.5055 H   0  0  0  0  0  0  0  0  0  0  0  0
   -3.3974   -0.8784    0.4660 H   0  0  0  0  0  0  0  0  0  0  0  0
   -4.5342    0.0164    2.5704 H   0  0  0  0  0  0  0  0  0  0  0  0
   -3.5478   -1.4328    2.7385 H   0  0  0  0  0  0  0  0  0  0  0  0
   -4.3389    0.3196    4.9865 H   0  0  0  0  0  0  0  0  0  0  0  0
   -3.2319   -1.0559    5.1839 H   0  0  0  0  0  0  0  0  0  0  0  0
   -2.7578    0.5746    5.7103 H   0  0  0  0  0  0  0  0  0  0  0  0
   -0.9271   -0.4840    4.4535 H   0  0  0  0  0  0  0  0  0  0  0  0
   -0.7788    0.9756    3.5003 H   0  0  0  0  0  0  0  0  0  0  0  0
    0.2579   -0.7572    2.2587 H   0  0  0  0  0  0  0  0  0  0  0  0
   -1.0601   -1.8941    2.5189 H   0  0  0  0  0  0  0  0  0  0  0  0
    0.7945   -2.0495    0.5029 H   0  0  0  0  0  0  0  0  0  0  0  0
    0.7023   -1.1058   -2.4372 H   0  0  0  0  0  0  0  0  0  0  0  0
    1.3205   -2.6388   -1.7977 H   0  0  0  0  0  0  0  0  0  0  0  0
    2.3617    0.7403   -2.6511 H   0  0  0  0  0  0  0  0  0  0  0  0
    3.4450   -0.5826   -3.0830 H   0  0  0  0  0  0  0  0  0  0  0  0
    3.9473    1.5402   -0.9255 H   0  0  0  0  0  0  0  0  0  0  0  0
    4.7254    1.4206   -2.5215 H   0  0  0  0  0  0  0  0  0  0  0  0
    6.0675    2.5542   -0.8353 H   0  0  0  0  0  0  0  0  0  0  0  0
   10.6874    2.7270    0.0663 H   0  0  0  0  0  0  0  0  0  0  0  0
   12.1490    0.6658    0.2206 H   0  0  0  0  0  0  0  0  0  0  0  0
   10.5170   -1.4745   -0.2251 H   0  0  0  0  0  0  0  0  0  0  0  0
    7.5361   -1.4967   -0.8224 H   0  0  0  0  0  0  0  0  0  0  0  0
    4.4801   -0.3278    0.7986 H   0  0  0  0  0  0  0  0  0  0  0  0
    5.5329   -1.6561    0.3013 H   0  0  0  0  0  0  0  0  0  0  0  0
    3.9253   -2.4598   -1.3395 H   0  0  0  0  0  0  0  0  0  0  0  0
    3.1852   -2.3691    0.2573 H   0  0  0  0  0  0  0  0  0  0  0  0
    1.2448    0.8855   -0.4483 H   0  0  0  0  0  0  0  0  0  0  0  0
    2.0715    0.0604    0.8851 H   0  0  0  0  0  0  0  0  0  0  0  0
   -4.0803   -0.4420   -2.0559 H   0  0  0  0  0  0  0  0  0  0  0  0
   -5.4143    0.5151   -2.7045 H   0  0  0  0  0  0  0  0  0  0  0  0
   -5.5124   -2.2635   -1.4242 H   0  0  0  0  0  0  0  0  0  0  0  0
   -5.9701   -1.7810   -3.0604 H   0  0  0  0  0  0  0  0  0  0  0  0
  1  2  1  0
  2  3  1  0
  3  4  1  0
  4  5  2  0
  5  6  1  0
  6  7  2  0
  7  8  1  0
  8  9  2  0
  9 10  1  0
 10 11  2  0
 11 12  1  0
 12 13  1  0
 13 14  1  0
 14 15  1  0
 14 16  1  0
 16 17  1  0
 17 18  1  0
 18 19  1  0
 19 20  2  0
 19 21  1  0
 21 22  1  0
 22 23  1  0
 23 24  1  0
 24 25  1  0
 25 26  1  0
 26 27  1  0
 27 28  2  0
 28 29  1  0
 29 30  2  0
 30 31  1  0
 31 32  1  0
 32 33  2  0
 33 34  1  0
 34 35  2  0
 26 36  1  0
 36 37  1  0
 23 38  1  0
  5 39  1  0
 39 40  1  0
 40  2  1  0
 11  6  1  0
 18 12  1  0
 38 21  1  0
 37 23  1  0
 35 27  1  0
 34 30  1  0
  1 41  1  0
  1 42  1  0
  1 43  1  0
  3 44  1  0
  3 45  1  0
  4 46  1  0
  7 47  1  0
  8 48  1  0
  9 49  1  0
 10 50  1  0
 12 51  1  6
 13 52  1  0
 13 53  1  0
 15 54  1  0
 15 55  1  0
 15 56  1  0
 16 57  1  0
 16 58  1  0
 17 59  1  0
 17 60  1  0
 21 61  1  0
 22 62  1  0
 22 63  1  0
 24 64  1  0
 24 65  1  0
 25 66  1  0
 25 67  1  0
 28 68  1  0
 31 69  1  0
 32 70  1  0
 33 71  1  0
 35 72  1  0
 36 73  1  0
 36 74  1  0
 37 75  1  0
 37 76  1  0
 38 77  1  0
 38 78  1  0
 39 79  1  0
 39 80  1  0
 40 81  1  0
 40 82  1  0
M  END
$$$$

     RDKit          3D

 82 88  0  0  0  0  0  0  0  0999 V2000
   -7.9085   -2.8783    0.2766 C   0  0  0  0  0  0  0  0  0  0  0  0
   -6.8120   -1.9481    0.0219 N   0  0  0  0  0  0  0  0  0  0  0  0
   -7.3112   -0.5664   -0.0478 C   0  0  0  0  0  0  0  0  0  0  0  0
   -6.2787    0.4153   -0.5251 C   0  0  0  0  0  0  0  0  0  0  0  0
   -5.1409    0.0346   -1.1313 C   0  0  0  0  0  0  0  0  0  0  0  0
   -4.1509    1.0291   -1.5697 C   0  0  0  0  0  0  0  0  0  0  0  0
   -4.3302    1.6100   -2.8362 C   0  0  0  0  0  0  0  0  0  0  0  0
   -3.4466    2.5789   -3.3099 C   0  0  0  0  0  0  0  0  0  0  0  0
   -2.3769    2.9845   -2.5203 C   0  0  0  0  0  0  0  0  0  0  0  0
   -2.1895    2.4196   -1.2583 C   0  0  0  0  0  0  0  0  0  0  0  0
   -3.0633    1.4292   -0.7636 C   0  0  0  0  0  0  0  0  0  0  0  0
   -2.8478    0.8552    0.6378 C   0  0  2  0  0  0  0  0  0  0  0  0
   -3.5133    1.8083    1.6800 C   0  0  0  0  0  0  0  0  0  0  0  0
   -3.2843    1.4688    3.1039 N   0  0  0  0  0  0  0  0  0  0  0  0
   -4.3044    0.5417    3.5940 C   0  0  0  0  0  0  0  0  0  0  0  0
   -1.9292    0.9252    3.3336 C   0  0  0  0  0  0  0  0  0  0  0  0
   -0.9325    1.2122    2.1930 C   0  0  0  0  0  0  0  0  0  0  0  0
   -1.4143    0.6226    0.9400 N   0  0  0  0  0  0  0  0  0  0  0  0
   -0.7452   -0.3977    0.2576 C   0  0  0  0  0  0  0  0  0  0  0  0
   -1.3386   -1.1263   -0.5473 O   0  0  0  0  0  0  0  0  0  0  0  0
    0.7738   -0.5600    0.5294 C   0  0  0  0  0  0  0  0  0  0  0  0
    1.7009    0.6436    0.2033 C   0  0  0  0  0  0  0  0  0  0  0  0
    2.7643   -0.3534   -0.3361 C   0  0  0  0  0  0  0  0  0  0  0  0
    3.4221    0.1196   -1.6401 C   0  0  0  0  0  0  0  0  0  0  0  0
    4.3885   -0.9497   -2.1551 C   0  0  0  0  0  0  0  0  0  0  0  0
    5.3812   -1.2873   -1.1225 N   0  0  0  0  0  0  0  0  0  0  0  0
    6.5855   -0.5820   -1.0289 C   0  0  0  0  0  0  0  0  0  0  0  0
    6.8783    0.5850   -1.7567 C   0  0  0  0  0  0  0  0  0  0  0  0
    8.0208    1.3300   -1.7349 N   0  0  0  0  0  0  0  0  0  0  0  0
    8.9457    0.8163   -0.9098 C   0  0  0  0  0  0  0  0  0  0  0  0
   10.1850    1.3549   -0.6999 N   0  0  0  0  0  0  0  0  0  0  0  0
   10.8853    0.5770    0.1877 C   0  0  0  0  0  0  0  0  0  0  0  0
   10.0749   -0.4793    0.5510 C   0  0  0  0  0  0  0  0  0  0  0  0
    8.8401   -0.3303   -0.1374 C   0  0  0  0  0  0  0  0  0  0  0  0
    7.6302   -1.0460   -0.2106 C   0  0  0  0  0  0  0  0  0  0  0  0
    4.7745   -1.7985    0.1198 C   0  0  0  0  0  0  0  0  0  0  0  0
    3.8253   -0.7482    0.7065 C   0  0  0  0  0  0  0  0  0  0  0  0
    1.5958   -1.3665   -0.5167 C   0  0  0  0  0  0  0  0  0  0  0  0
   -4.8520   -1.4180   -1.4109 C   0  0  0  0  0  0  0  0  0  0  0  0
   -6.0963   -2.3028   -1.2145 C   0  0  0  0  0  0  0  0  0  0  0  0
   -8.6500   -2.8777   -0.5305 H   0  0  0  0  0  0  0  0  0  0  0  0
   -8.4177   -2.6255    1.2133 H   0  0  0  0  0  0  0  0  0  0  0  0
   -7.5272   -3.8989    0.3923 H   0  0  0  0  0  0  0  0  0  0  0  0
   -8.1829   -0.4900   -0.7108 H   0  0  0  0  0  0  0  0  0  0  0  0
   -7.6320   -0.2605    0.9553 H   0  0  0  0  0  0  0  0  0  0  0  0
   -6.4940    1.4674   -0.3601 H   0  0  0  0  0  0  0  0  0  0  0  0
   -5.1660    1.3049   -3.4621 H   0  0  0  0  0  0  0  0  0  0  0  0
   -3.5959    3.0157   -4.2935 H   0  0  0  0  0  0  0  0  0  0  0  0
   -1.6870    3.7408   -2.8849 H   0  0  0  0  0  0  0  0  0  0  0  0
   -1.3485    2.7566   -0.6564 H   0  0  0  0  0  0  0  0  0  0  0  0
   -3.3208   -0.1285    0.7255 H   0  0  0  0  0  0  0  0  0  0  0  0
   -3.1118    2.8220    1.5394 H   0  0  0  0  0  0  0  0  0  0  0  0
   -4.5873    1.9111    1.4797 H   0  0  0  0  0  0  0  0  0  0  0  0
   -5.3013    0.9888    3.5123 H   0  0  0  0  0  0  0  0  0  0  0  0
   -4.3060   -0.4053    3.0425 H   0  0  0  0  0  0  0  0  0  0  0  0
   -4.1454    0.3242    4.6562 H   0  0  0  0  0  0  0  0  0  0  0  0
   -1.5426    1.3490    4.2672 H   0  0  0  0  0  0  0  0  0  0  0  0
   -1.9662   -0.1647    3.4680 H   0  0  0  0  0  0  0  0  0  0  0  0
    0.0445    0.8167    2.4749 H   0  0  0  0  0  0  0  0  0  0  0  0
   -0.8172    2.2907    2.0348 H   0  0  0  0  0  0  0  0  0  0  0  0
    0.9481   -0.9657    1.5366 H   0  0  0  0  0  0  0  0  0  0  0  0
    1.2875    1.3210   -0.5546 H   0  0  0  0  0  0  0  0  0  0  0  0
    2.0093    1.2461    1.0632 H   0  0  0  0  0  0  0  0  0  0  0  0
    2.6671    0.3271   -2.4078 H   0  0  0  0  0  0  0  0  0  0  0  0
    3.9551    1.0602   -1.4584 H   0  0  0  0  0  0  0  0  0  0  0  0
    3.8251   -1.8604   -2.3971 H   0  0  0  0  0  0  0  0  0  0  0  0
    4.8587   -0.6411   -3.0954 H   0  0  0  0  0  0  0  0  0  0  0  0
    6.1410    1.0126   -2.4299 H   0  0  0  0  0  0  0  0  0  0  0  0
   10.5106    2.1965   -1.1516 H   0  0  0  0  0  0  0  0  0  0  0  0
   11.8936    0.8394    0.4783 H   0  0  0  0  0  0  0  0  0  0  0  0
   10.3416   -1.2724    1.2370 H   0  0  0  0  0  0  0  0  0  0  0  0
    7.5433   -1.9717    0.3454 H   0  0  0  0  0  0  0  0  0  0  0  0
    4.2164   -2.7119   -0.1202 H   0  0  0  0  0  0  0  0  0  0  0  0
    5.5069   -2.0899    0.8780 H   0  0  0  0  0  0  0  0  0  0  0  0
    4.3967    0.1401    1.0044 H   0  0  0  0  0  0  0  0  0  0  0  0
    3.3603   -1.1479    1.6149 H   0  0  0  0  0  0  0  0  0  0  0  0
    1.1577   -1.3699   -1.5225 H   0  0  0  0  0  0  0  0  0  0  0  0
    1.8045   -2.4031   -0.2358 H   0  0  0  0  0  0  0  0  0  0  0  0
   -4.4907   -1.5465   -2.4383 H   0  0  0  0  0  0  0  0  0  0  0  0
   -4.0577   -1.7653   -0.7401 H   0  0  0  0  0  0  0  0  0  0  0  0
   -6.7598   -2.2086   -2.0853 H   0  0  0  0  0  0  0  0  0  0  0  0
   -5.7655   -3.3481   -1.1746 H   0  0  0  0  0  0  0  0  0  0  0  0
  1  2  1  0
  2  3  1  0
  3  4  1  0
  4  5  2  0
  5  6  1  0
  6  7  2  0
  7  8  1  0
  8  9  2  0
  9 10  1  0
 10 11  2  0
 11 12  1  0
 12 13  1  0
 13 14  1  0
 14 15  1  0
 14 16  1  0
 16 17  1  0
 17 18  1  0
 18 19  1  0
 19 20  2  0
 19 21  1  0
 21 22  1  0
 22 23  1  0
 23 24  1  0
 24 25  1  0
 25 26  1  0
 26 27  1  0
 27 28  2  0
 28 29  1  0
 29 30  2  0
 30 31  1  0
 31 32  1  0
 32 33  2  0
 33 34  1  0
 34 35  2  0
 26 36  1  0
 36 37  1  0
 23 38  1  0
  5 39  1  0
 39 40  1  0
 40  2  1  0
 11  6  1  0
 18 12  1  0
 38 21  1  0
 37 23  1  0
 35 27  1  0
 34 30  1  0
  1 41  1  0
  1 42  1  0
  1 43  1  0
  3 44  1  0
  3 45  1  0
  4 46  1  0
  7 47  1  0
  8 48  1  0
  9 49  1  0
 10 50  1  0
 12 51  1  6
 13 52  1  0
 13 53  1  0
 15 54  1  0
 15 55  1  0
 15 56  1  0
 16 57  1  0
 16 58  1  0
 17 59  1  0
 17 60  1  0
 21 61  1  0
 22 62  1  0
 22 63  1  0
 24 64  1  0
 24 65  1  0
 25 66  1  0
 25 67  1  0
 28 68  1  0
 31 69  1  0
 32 70  1  0
 33 71  1  0
 35 72  1  0
 36 73  1  0
 36 74  1  0
 37 75  1  0
 37 76  1  0
 38 77  1  0
 38 78  1  0
 39 79  1  0
 39 80  1  0
 40 81  1  0
 40 82  1  0
M  END
$$$$

     RDKit          3D

 82 88  0  0  0  0  0  0  0  0999 V2000
   -5.5379    2.3579   -2.5202 C   0  0  0  0  0  0  0  0  0  0  0  0
   -6.3614    2.6494   -1.3464 N   0  0  0  0  0  0  0  0  0  0  0  0
   -7.0164    1.4393   -0.8284 C   0  0  0  0  0  0  0  0  0  0  0  0
   -6.1642    0.5774    0.0621 C   0  0  0  0  0  0  0  0  0  0  0  0
   -4.9998    0.9975    0.5888 C   0  0  0  0  0  0  0  0  0  0  0  0
   -4.2081    0.1165    1.4637 C   0  0  0  0  0  0  0  0  0  0  0  0
   -4.3155    0.3392    2.8486 C   0  0  0  0  0  0  0  0  0  0  0  0
   -3.6567   -0.4815    3.7606 C   0  0  0  0  0  0  0  0  0  0  0  0
   -2.8960   -1.5469    3.2992 C   0  0  0  0  0  0  0  0  0  0  0  0
   -2.7808   -1.7802    1.9272 C   0  0  0  0  0  0  0  0  0  0  0  0
   -3.4082   -0.9468    0.9803 C   0  0  0  0  0  0  0  0  0  0  0  0
   -3.2543   -1.2238   -0.5219 C   0  0  2  0  0  0  0  0  0  0  0  0
   -4.1207   -2.4414   -0.9646 C   0  0  0  0  0  0  0  0  0  0  0  0
   -3.4648   -3.7582   -0.7870 N   0  0  0  0  0  0  0  0  0  0  0  0
   -4.3394   -4.8326   -1.2533 C   0  0  0  0  0  0  0  0  0  0  0  0
   -2.1951   -3.7571   -1.5280 C   0  0  0  0  0  0  0  0  0  0  0  0
   -1.2365   -2.6625   -1.0310 C   0  0  0  0  0  0  0  0  0  0  0  0
   -1.8386   -1.3272   -0.9626 N   0  0  0  0  0  0  0  0  0  0  0  0
   -1.0933   -0.1470   -1.0645 C   0  0  0  0  0  0  0  0  0  0  0  0
   -1.6479    0.9590   -1.0563 O   0  0  0  0  0  0  0  0  0  0  0  0
    0.4486   -0.2778   -1.1968 C   0  0  0  0  0  0  0  0  0  0  0  0
    1.2394   -0.8030    0.0329 C   0  0  0  0  0  0  0  0  0  0  0  0
    2.3726    0.2131   -0.2958 C   0  0  0  0  0  0  0  0  0  0  0  0
    2.9284    0.8990    0.9585 C   0  0  0  0  0  0  0  0  0  0  0  0
    4.2764    1.5540    0.6636 C   0  0  0  0  0  0  0  0  0  0  0  0
    5.2469    0.5359    0.2428 N   0  0  0  0  0  0  0  0  0  0  0  0
    6.6034    0.6928    0.5013 C   0  0  0  0  0  0  0  0  0  0  0  0
    7.5047   -0.3858    0.5505 C   0  0  0  0  0  0  0  0  0  0  0  0
    8.8469   -0.3541    0.7873 N   0  0  0  0  0  0  0  0  0  0  0  0
    9.2945    0.8945    0.9924 C   0  0  0  0  0  0  0  0  0  0  0  0
   10.5972    1.2197    1.2516 N   0  0  0  0  0  0  0  0  0  0  0  0
   10.7152    2.5781    1.4067 C   0  0  0  0  0  0  0  0  0  0  0  0
    9.4610    3.1302    1.2435 C   0  0  0  0  0  0  0  0  0  0  0  0
    8.5537    2.0672    0.9828 C   0  0  0  0  0  0  0  0  0  0  0  0
    7.1732    1.9559    0.7297 C   0  0  0  0  0  0  0  0  0  0  0  0
    4.7371   -0.6689   -0.4201 C   0  0  0  0  0  0  0  0  0  0  0  0
    3.4778   -0.3315   -1.2180 C   0  0  0  0  0  0  0  0  0  0  0  0
    1.2852    1.0271   -1.0605 C   0  0  0  0  0  0  0  0  0  0  0  0
   -4.5007    2.4014    0.3591 C   0  0  0  0  0  0  0  0  0  0  0  0
   -5.5763    3.2992   -0.2817 C   0  0  0  0  0  0  0  0  0  0  0  0
   -5.0695    3.2745   -2.8962 H   0  0  0  0  0  0  0  0  0  0  0  0
   -6.1635    1.9747   -3.3343 H   0  0  0  0  0  0  0  0  0  0  0  0
   -4.7482    1.6241   -2.3289 H   0  0  0  0  0  0  0  0  0  0  0  0
   -7.8999    1.7433   -0.2529 H   0  0  0  0  0  0  0  0  0  0  0  0
   -7.3998    0.8336   -1.6589 H   0  0  0  0  0  0  0  0  0  0  0  0
   -6.5462   -0.4153    0.2832 H   0  0  0  0  0  0  0  0  0  0  0  0
   -4.9316    1.1539    3.2239 H   0  0  0  0  0  0  0  0  0  0  0  0
   -3.7525   -0.2981    4.8270 H   0  0  0  0  0  0  0  0  0  0  0  0
   -2.3968   -2.2059    4.0046 H   0  0  0  0  0  0  0  0  0  0  0  0
   -2.2055   -2.6425    1.6074 H   0  0  0  0  0  0  0  0  0  0  0  0
   -3.6524   -0.3634   -1.0702 H   0  0  0  0  0  0  0  0  0  0  0  0
   -4.3613   -2.3085   -2.0294 H   0  0  0  0  0  0  0  0  0  0  0  0
   -5.0755   -2.4303   -0.4241 H   0  0  0  0  0  0  0  0  0  0  0  0
   -3.8648   -5.8075   -1.0967 H   0  0  0  0  0  0  0  0  0  0  0  0
   -4.5871   -4.7369   -2.3166 H   0  0  0  0  0  0  0  0  0  0  0  0
   -5.2735   -4.8420   -0.6808 H   0  0  0  0  0  0  0  0  0  0  0  0
   -1.6940   -4.7259   -1.4135 H   0  0  0  0  0  0  0  0  0  0  0  0
   -2.3785   -3.6116   -2.6012 H   0  0  0  0  0  0  0  0  0  0  0  0
   -0.3723   -2.6420   -1.7009 H   0  0  0  0  0  0  0  0  0  0  0  0
   -0.8563   -2.9124   -0.0359 H   0  0  0  0  0  0  0  0  0  0  0  0
    0.7202   -0.7973   -2.1271 H   0  0  0  0  0  0  0  0  0  0  0  0
    1.5252   -1.8586   -0.0051 H   0  0  0  0  0  0  0  0  0  0  0  0
    0.7294   -0.6232    0.9880 H   0  0  0  0  0  0  0  0  0  0  0  0
    2.2264    1.6459    1.3468 H   0  0  0  0  0  0  0  0  0  0  0  0
    3.0646    0.1559    1.7558 H   0  0  0  0  0  0  0  0  0  0  0  0
    4.1732    2.3109   -0.1230 H   0  0  0  0  0  0  0  0  0  0  0  0
    4.6042    2.0559    1.5818 H   0  0  0  0  0  0  0  0  0  0  0  0
    7.1421   -1.4012    0.4099 H   0  0  0  0  0  0  0  0  0  0  0  0
   11.3399    0.5392    1.3121 H   0  0  0  0  0  0  0  0  0  0  0  0
   11.6750    3.0301    1.6173 H   0  0  0  0  0  0  0  0  0  0  0  0
    9.2226    4.1838    1.3052 H   0  0  0  0  0  0  0  0  0  0  0  0
    6.5784    2.8607    0.6919 H   0  0  0  0  0  0  0  0  0  0  0  0
    5.4729   -1.0719   -1.1262 H   0  0  0  0  0  0  0  0  0  0  0  0
    4.5245   -1.4410    0.3289 H   0  0  0  0  0  0  0  0  0  0  0  0
    3.1387   -1.2182   -1.7661 H   0  0  0  0  0  0  0  0  0  0  0  0
    3.7362    0.4242   -1.9717 H   0  0  0  0  0  0  0  0  0  0  0  0
    1.5952    1.4786   -2.0081 H   0  0  0  0  0  0  0  0  0  0  0  0
    0.7994    1.8070   -0.4612 H   0  0  0  0  0  0  0  0  0  0  0  0
   -3.6213    2.3692   -0.2920 H   0  0  0  0  0  0  0  0  0  0  0  0
   -4.1856    2.8607    1.3035 H   0  0  0  0  0  0  0  0  0  0  0  0
   -6.2719    3.6335    0.5003 H   0  0  0  0  0  0  0  0  0  0  0  0
   -5.1094    4.2160   -0.6628 H   0  0  0  0  0  0  0  0  0  0  0  0
  1  2  1  0
  2  3  1  0
  3  4  1  0
  4  5  2  0
  5  6  1  0
  6  7  2  0
  7  8  1  0
  8  9  2  0
  9 10  1  0
 10 11  2  0
 11 12  1  0
 12 13  1  0
 13 14  1  0
 14 15  1  0
 14 16  1  0
 16 17  1  0
 17 18  1  0
 18 19  1  0
 19 20  2  0
 19 21  1  0
 21 22  1  0
 22 23  1  0
 23 24  1  0
 24 25  1  0
 25 26  1  0
 26 27  1  0
 27 28  2  0
 28 29  1  0
 29 30  2  0
 30 31  1  0
 31 32  1  0
 32 33  2  0
 33 34  1  0
 34 35  2  0
 26 36  1  0
 36 37  1  0
 23 38  1  0
  5 39  1  0
 39 40  1  0
 40  2  1  0
 11  6  1  0
 18 12  1  0
 38 21  1  0
 37 23  1  0
 35 27  1  0
 34 30  1  0
  1 41  1  0
  1 42  1  0
  1 43  1  0
  3 44  1  0
  3 45  1  0
  4 46  1  0
  7 47  1  0
  8 48  1  0
  9 49  1  0
 10 50  1  0
 12 51  1  6
 13 52  1  0
 13 53  1  0
 15 54  1  0
 15 55  1  0
 15 56  1  0
 16 57  1  0
 16 58  1  0
 17 59  1  0
 17 60  1  0
 21 61  1  0
 22 62  1  0
 22 63  1  0
 24 64  1  0
 24 65  1  0
 25 66  1  0
 25 67  1  0
 28 68  1  0
 31 69  1  0
 32 70  1  0
 33 71  1  0
 35 72  1  0
 36 73  1  0
 36 74  1  0
 37 75  1  0
 37 76  1  0
 38 77  1  0
 38 78  1  0
 39 79  1  0
 39 80  1  0
 40 81  1  0
 40 82  1  0
M  END
$$$$
