
     RDKit          3D

 76 81  0  0  0  0  0  0  0  0999 V2000
   -6.8693    2.9571   -2.2054 C   0  0  0  0  0  0  0  0  0  0  0  0
   -6.6540    1.6867   -1.5190 N   0  0  0  0  0  0  0  0  0  0  0  0
   -5.7892    0.8059   -2.3210 C   0  0  0  0  0  0  0  0  0  0  0  0
   -5.3031   -0.4041   -1.5771 C   0  0  0  0  0  0  0  0  0  0  0  0
   -5.3847   -0.5318   -0.2402 C   0  0  0  0  0  0  0  0  0  0  0  0
   -4.8926   -1.7474    0.4521 C   0  0  0  0  0  0  0  0  0  0  0  0
   -5.8413   -2.4688    1.2046 C   0  0  0  0  0  0  0  0  0  0  0  0
   -5.5048   -3.6641    1.8343 C   0  0  0  0  0  0  0  0  0  0  0  0
   -4.2157   -4.1605    1.7131 C   0  0  0  0  0  0  0  0  0  0  0  0
   -3.2625   -3.4558    0.9720 C   0  0  0  0  0  0  0  0  0  0  0  0
   -3.5586   -2.2333    0.3390 C   0  0  0  0  0  0  0  0  0  0  0  0
   -2.5706   -1.5383   -0.3641 N   0  0  0  0  0  0  0  0  0  0  0  0
   -2.2197   -0.1933    0.1073 C   0  0  0  0  0  0  0  0  0  0  0  0
   -0.9165   -0.2354    0.9064 C   0  0  0  0  0  0  0  0  0  0  0  0
    0.1955   -0.8668    0.0625 C   0  0  0  0  0  0  0  0  0  0  0  0
   -0.2060   -2.2802   -0.3867 C   0  0  0  0  0  0  0  0  0  0  0  0
   -1.5421   -2.2427   -1.1317 C   0  0  0  0  0  0  0  0  0  0  0  0
    1.5919   -0.8026    0.7431 C   0  0  0  0  0  0  0  0  0  0  0  0
    2.2136   -0.4224   -0.6294 C   0  0  0  0  0  0  0  0  0  0  0  0
    3.3416    0.6459   -0.6660 C   0  0  0  0  0  0  0  0  0  0  0  0
    3.3069    1.5833   -1.4719 O   0  0  0  0  0  0  0  0  0  0  0  0
    4.3614    0.5162    0.2913 N   0  0  0  0  0  0  0  0  0  0  0  0
    4.8610   -0.8314    0.6106 C   0  0  0  0  0  0  0  0  0  0  0  0
    6.3772   -0.9995    0.2952 C   0  0  0  0  0  0  0  0  0  0  0  0
    6.7961   -0.2083   -0.8735 N   0  0  0  0  0  0  0  0  0  0  0  0
    8.1913   -0.4383   -1.2256 C   0  0  0  0  0  0  0  0  0  0  0  0
    6.5130    1.2426   -0.6911 C   0  0  0  0  0  0  0  0  0  0  0  0
    5.4222    1.5285    0.3766 C   0  0  1  0  0  0  0  0  0  0  0  0
    4.9312    2.9527    0.3761 C   0  0  0  0  0  0  0  0  0  0  0  0
    4.0685    3.4627    1.5054 C   0  0  0  0  0  0  0  0  0  0  0  0
    5.4786    3.9611    1.3591 C   0  0  0  0  0  0  0  0  0  0  0  0
    0.7913    0.0511   -1.0448 C   0  0  0  0  0  0  0  0  0  0  0  0
   -5.9985    0.5670    0.5905 C   0  0  0  0  0  0  0  0  0  0  0  0
   -6.0818    1.8957   -0.1818 C   0  0  0  0  0  0  0  0  0  0  0  0
   -7.5667    3.5853   -1.6403 H   0  0  0  0  0  0  0  0  0  0  0  0
   -7.3225    2.7912   -3.1891 H   0  0  0  0  0  0  0  0  0  0  0  0
   -5.9377    3.5175   -2.3445 H   0  0  0  0  0  0  0  0  0  0  0  0
   -4.9075    1.3465   -2.6896 H   0  0  0  0  0  0  0  0  0  0  0  0
   -6.3553    0.4648   -3.1960 H   0  0  0  0  0  0  0  0  0  0  0  0
   -4.8481   -1.1904   -2.1738 H   0  0  0  0  0  0  0  0  0  0  0  0
   -6.8665   -2.1128    1.2779 H   0  0  0  0  0  0  0  0  0  0  0  0
   -6.2522   -4.2098    2.4031 H   0  0  0  0  0  0  0  0  0  0  0  0
   -3.9439   -5.0960    2.1941 H   0  0  0  0  0  0  0  0  0  0  0  0
   -2.2635   -3.8749    0.9182 H   0  0  0  0  0  0  0  0  0  0  0  0
   -2.1027    0.4612   -0.7651 H   0  0  0  0  0  0  0  0  0  0  0  0
   -2.9936    0.2555    0.7378 H   0  0  0  0  0  0  0  0  0  0  0  0
   -1.0630   -0.8195    1.8239 H   0  0  0  0  0  0  0  0  0  0  0  0
   -0.6470    0.7817    1.2148 H   0  0  0  0  0  0  0  0  0  0  0  0
    0.5560   -2.7238   -1.0379 H   0  0  0  0  0  0  0  0  0  0  0  0
   -0.2810   -2.9296    0.4928 H   0  0  0  0  0  0  0  0  0  0  0  0
   -1.4104   -1.7083   -2.0808 H   0  0  0  0  0  0  0  0  0  0  0  0
   -1.8575   -3.2570   -1.4041 H   0  0  0  0  0  0  0  0  0  0  0  0
    1.9531   -1.7404    1.1764 H   0  0  0  0  0  0  0  0  0  0  0  0
    1.6895   -0.0169    1.5028 H   0  0  0  0  0  0  0  0  0  0  0  0
    2.5032   -1.3073   -1.2149 H   0  0  0  0  0  0  0  0  0  0  0  0
    4.3103   -1.5918    0.0515 H   0  0  0  0  0  0  0  0  0  0  0  0
    4.6898   -1.0000    1.6793 H   0  0  0  0  0  0  0  0  0  0  0  0
    6.5750   -2.0659    0.1315 H   0  0  0  0  0  0  0  0  0  0  0  0
    6.9638   -0.7049    1.1759 H   0  0  0  0  0  0  0  0  0  0  0  0
    8.3620   -1.4970   -1.4496 H   0  0  0  0  0  0  0  0  0  0  0  0
    8.4577    0.1224   -2.1283 H   0  0  0  0  0  0  0  0  0  0  0  0
    8.8733   -0.1433   -0.4202 H   0  0  0  0  0  0  0  0  0  0  0  0
    7.4178    1.7912   -0.3971 H   0  0  0  0  0  0  0  0  0  0  0  0
    6.2043    1.6432   -1.6642 H   0  0  0  0  0  0  0  0  0  0  0  0
    5.8807    1.3672    1.3637 H   0  0  0  0  0  0  0  0  0  0  0  0
    4.7119    3.3178   -0.6220 H   0  0  0  0  0  0  0  0  0  0  0  0
    3.8437    2.7918    2.3264 H   0  0  0  0  0  0  0  0  0  0  0  0
    3.2562    4.1328    1.2468 H   0  0  0  0  0  0  0  0  0  0  0  0
    6.2066    3.6402    2.0949 H   0  0  0  0  0  0  0  0  0  0  0  0
    5.6211    4.9785    1.0115 H   0  0  0  0  0  0  0  0  0  0  0  0
    0.6160    1.1221   -0.8827 H   0  0  0  0  0  0  0  0  0  0  0  0
    0.5098   -0.1864   -2.0749 H   0  0  0  0  0  0  0  0  0  0  0  0
   -7.0075    0.2675    0.9006 H   0  0  0  0  0  0  0  0  0  0  0  0
   -5.4100    0.7312    1.5012 H   0  0  0  0  0  0  0  0  0  0  0  0
   -6.7112    2.5839    0.3960 H   0  0  0  0  0  0  0  0  0  0  0  0
   -5.0844    2.3513   -0.2511 H   0  0  0  0  0  0  0  0  0  0  0  0
  1  2  1  0
  2  3  1  0
  3  4  1  0
  4  5  2  0
  5  6  1  0
  6  7  2  0
  7  8  1  0
  8  9  2  0
  9 10  1  0
 10 11  2  0
 11 12  1  0
 12 13  1  0
 13 14  1  0
 14 15  1  0
 15 16  1  0
 16 17  1  0
 15 18  1  0
 18 19  1  0
 19 20  1  0
 20 21  2  0
 20 22  1  0
 22 23  1  0
 23 24  1  0
 24 25  1  0
 25 26  1  0
 25 27  1  0
 27 28  1  0
 28 29  1  0
 29 30  1  0
 30 31  1  0
 19 32  1  0
  5 33  1  0
 33 34  1  0
 34  2  1  0
 11  6  1  0
 17 12  1  0
 28 22  1  0
 31 29  1  0
 32 15  1  0
  1 35  1  0
  1 36  1  0
  1 37  1  0
  3 38  1  0
  3 39  1  0
  4 40  1  0
  7 41  1  0
  8 42  1  0
  9 43  1  0
 10 44  1  0
 13 45  1  0
 13 46  1  0
 14 47  1  0
 14 48  1  0
 16 49  1  0
 16 50  1  0
 17 51  1  0
 17 52  1  0
 18 53  1  0
 18 54  1  0
 19 55  1  0
 23 56  1  0
 23 57  1  0
 24 58  1  0
 24 59  1  0
 26 60  1  0
 26 61  1  0
 26 62  1  0
 27 63  1  0
 27 64  1  0
 28 65  1  1
 29 66  1  0
 30 67  1  0
 30 68  1  0
 31 69  1  0
 31 70  1  0
 32 71  1  0
 32 72  1  0
 33 73  1  0
 33 74  1  0
 34 75  1  0
 34 76  1  0
M  END
$$$$

     RDKit          3D

 76 81  0  0  0  0  0  0  0  0999 V2000
    7.7963    2.6826    0.9277 C   0  0  0  0  0  0  0  0  0  0  0  0
    6.4990    2.4550    1.5623 N   0  0  0  0  0  0  0  0  0  0  0  0
    5.3897    2.8106    0.6623 C   0  0  0  0  0  0  0  0  0  0  0  0
    5.0017    1.7521   -0.3301 C   0  0  0  0  0  0  0  0  0  0  0  0
    5.3981    0.4694   -0.2390 C   0  0  0  0  0  0  0  0  0  0  0  0
    4.9807   -0.5406   -1.2388 C   0  0  0  0  0  0  0  0  0  0  0  0
    5.9989   -1.2015   -1.9516 C   0  0  0  0  0  0  0  0  0  0  0  0
    5.6957   -2.1469   -2.9298 C   0  0  0  0  0  0  0  0  0  0  0  0
    4.3691   -2.4465   -3.2092 C   0  0  0  0  0  0  0  0  0  0  0  0
    3.3460   -1.8011   -2.5108 C   0  0  0  0  0  0  0  0  0  0  0  0
    3.6198   -0.8400   -1.5188 C   0  0  0  0  0  0  0  0  0  0  0  0
    2.5755   -0.2303   -0.7941 N   0  0  0  0  0  0  0  0  0  0  0  0
    2.3717   -0.8496    0.5284 C   0  0  0  0  0  0  0  0  0  0  0  0
    1.1475   -0.2319    1.1994 C   0  0  0  0  0  0  0  0  0  0  0  0
   -0.1162   -0.5378    0.3801 C   0  0  0  0  0  0  0  0  0  0  0  0
    0.1667   -0.6698   -1.1305 C   0  0  0  0  0  0  0  0  0  0  0  0
    1.3689    0.1858   -1.5234 C   0  0  0  0  0  0  0  0  0  0  0  0
   -0.9951   -1.6998    0.9387 C   0  0  0  0  0  0  0  0  0  0  0  0
   -2.2549   -0.8220    0.6893 C   0  0  0  0  0  0  0  0  0  0  0  0
   -3.3760   -0.8756    1.7660 C   0  0  0  0  0  0  0  0  0  0  0  0
   -3.0972   -1.0568    2.9616 O   0  0  0  0  0  0  0  0  0  0  0  0
   -4.7109   -0.7146    1.3814 N   0  0  0  0  0  0  0  0  0  0  0  0
   -5.7303   -0.8288    2.4338 C   0  0  0  0  0  0  0  0  0  0  0  0
   -7.0534   -0.1410    2.0654 C   0  0  0  0  0  0  0  0  0  0  0  0
   -7.6663   -0.6694    0.8352 N   0  0  0  0  0  0  0  0  0  0  0  0
   -8.5764    0.3029    0.2403 C   0  0  0  0  0  0  0  0  0  0  0  0
   -6.6649   -1.1723   -0.1249 C   0  0  0  0  0  0  0  0  0  0  0  0
   -5.2106   -0.6176   -0.0049 C   0  0  1  0  0  0  0  0  0  0  0  0
   -5.1151    0.8179   -0.4803 C   0  0  0  0  0  0  0  0  0  0  0  0
   -4.0460    1.2647   -1.4517 C   0  0  0  0  0  0  0  0  0  0  0  0
   -5.4724    1.1875   -1.9035 C   0  0  0  0  0  0  0  0  0  0  0  0
   -1.3034    0.4044    0.7405 C   0  0  0  0  0  0  0  0  0  0  0  0
    6.2840    0.0202    0.8956 C   0  0  0  0  0  0  0  0  0  0  0  0
    6.3485    1.0652    2.0257 C   0  0  0  0  0  0  0  0  0  0  0  0
    7.9223    3.7462    0.6955 H   0  0  0  0  0  0  0  0  0  0  0  0
    7.9328    2.1169   -0.0000 H   0  0  0  0  0  0  0  0  0  0  0  0
    8.6093    2.4179    1.6129 H   0  0  0  0  0  0  0  0  0  0  0  0
    4.5067    3.0332    1.2747 H   0  0  0  0  0  0  0  0  0  0  0  0
    5.6201    3.7413    0.1291 H   0  0  0  0  0  0  0  0  0  0  0  0
    4.3403    2.0628   -1.1346 H   0  0  0  0  0  0  0  0  0  0  0  0
    7.0430   -0.9658   -1.7599 H   0  0  0  0  0  0  0  0  0  0  0  0
    6.4950   -2.6434   -3.4730 H   0  0  0  0  0  0  0  0  0  0  0  0
    4.1251   -3.1859   -3.9672 H   0  0  0  0  0  0  0  0  0  0  0  0
    2.3213   -2.0783   -2.7378 H   0  0  0  0  0  0  0  0  0  0  0  0
    2.2322   -1.9344    0.4300 H   0  0  0  0  0  0  0  0  0  0  0  0
    3.2431   -0.6816    1.1702 H   0  0  0  0  0  0  0  0  0  0  0  0
    1.0537   -0.6045    2.2257 H   0  0  0  0  0  0  0  0  0  0  0  0
    1.2911    0.8545    1.2717 H   0  0  0  0  0  0  0  0  0  0  0  0
    0.3742   -1.7183   -1.3773 H   0  0  0  0  0  0  0  0  0  0  0  0
   -0.7058   -0.3742   -1.7243 H   0  0  0  0  0  0  0  0  0  0  0  0
    1.5120    0.1684   -2.6104 H   0  0  0  0  0  0  0  0  0  0  0  0
    1.1679    1.2335   -1.2663 H   0  0  0  0  0  0  0  0  0  0  0  0
   -0.8156   -1.9384    1.9940 H   0  0  0  0  0  0  0  0  0  0  0  0
   -0.9682   -2.6387    0.3767 H   0  0  0  0  0  0  0  0  0  0  0  0
   -2.6135   -1.0092   -0.3261 H   0  0  0  0  0  0  0  0  0  0  0  0
   -5.8926   -1.8990    2.6134 H   0  0  0  0  0  0  0  0  0  0  0  0
   -5.3494   -0.3959    3.3656 H   0  0  0  0  0  0  0  0  0  0  0  0
   -7.7631   -0.2647    2.8916 H   0  0  0  0  0  0  0  0  0  0  0  0
   -6.8607    0.9354    1.9715 H   0  0  0  0  0  0  0  0  0  0  0  0
   -9.1095   -0.1381   -0.6092 H   0  0  0  0  0  0  0  0  0  0  0  0
   -9.3405    0.6065    0.9647 H   0  0  0  0  0  0  0  0  0  0  0  0
   -8.0573    1.2020   -0.1082 H   0  0  0  0  0  0  0  0  0  0  0  0
   -7.0256   -1.0791   -1.1568 H   0  0  0  0  0  0  0  0  0  0  0  0
   -6.6035   -2.2548    0.0548 H   0  0  0  0  0  0  0  0  0  0  0  0
   -4.5881   -1.2549   -0.6404 H   0  0  0  0  0  0  0  0  0  0  0  0
   -5.4091    1.5265    0.2867 H   0  0  0  0  0  0  0  0  0  0  0  0
   -3.6119    2.2480   -1.3052 H   0  0  0  0  0  0  0  0  0  0  0  0
   -3.3589    0.5404   -1.8719 H   0  0  0  0  0  0  0  0  0  0  0  0
   -6.0054    2.1184   -2.0649 H   0  0  0  0  0  0  0  0  0  0  0  0
   -5.7321    0.4055   -2.6079 H   0  0  0  0  0  0  0  0  0  0  0  0
   -1.5144    1.1992    0.0197 H   0  0  0  0  0  0  0  0  0  0  0  0
   -1.2324    0.8628    1.7353 H   0  0  0  0  0  0  0  0  0  0  0  0
    7.2959   -0.1708    0.5184 H   0  0  0  0  0  0  0  0  0  0  0  0
    5.9110   -0.9217    1.3163 H   0  0  0  0  0  0  0  0  0  0  0  0
    7.1617    0.8082    2.7160 H   0  0  0  0  0  0  0  0  0  0  0  0
    5.4296    0.9999    2.6245 H   0  0  0  0  0  0  0  0  0  0  0  0
  1  2  1  0
  2  3  1  0
  3  4  1  0
  4  5  2  0
  5  6  1  0
  6  7  2  0
  7  8  1  0
  8  9  2  0
  9 10  1  0
 10 11  2  0
 11 12  1  0
 12 13  1  0
 13 14  1  0
 14 15  1  0
 15 16  1  0
 16 17  1  0
 15 18  1  0
 18 19  1  0
 19 20  1  0
 20 21  2  0
 20 22  1  0
 22 23  1  0
 23 24  1  0
 24 25  1  0
 25 26  1  0
 25 27  1  0
 27 28  1  0
 28 29  1  0
 29 30  1  0
 30 31  1  0
 19 32  1  0
  5 33  1  0
 33 34  1  0
 34  2  1  0
 11  6  1  0
 17 12  1  0
 28 22  1  0
 31 29  1  0
 32 15  1  0
  1 35  1  0
  1 36  1  0
  1 37  1  0
  3 38  1  0
  3 39  1  0
  4 40  1  0
  7 41  1  0
  8 42  1  0
  9 43  1  0
 10 44  1  0
 13 45  1  0
 13 46  1  0
 14 47  1  0
 14 48  1  0
 16 49  1  0
 16 50  1  0
 17 51  1  0
 17 52  1  0
 18 53  1  0
 18 54  1  0
 19 55  1  0
 23 56  1  0
 23 57  1  0
 24 58  1  0
 24 59  1  0
 26 60  1  0
 26 61  1  0
 26 62  1  0
 27 63  1  0
 27 64  1  0
 28 65  1  6
 29 66  1  0
 30 67  1  0
 30 68  1  0
 31 69  1  0
 31 70  1  0
 32 71  1  0
 32 72  1  0
 33 73  1  0
 33 74  1  0
 34 75  1  0
 34 76  1  0
M  END
$$$$

     RDKit          3D

 76 81  0  0  0  0  0  0  0  0999 V2000
   -6.1329   -0.5992    3.1531 C   0  0  0  0  0  0  0  0  0  0  0  0
   -4.7678   -0.1187    2.9418 N   0  0  0  0  0  0  0  0  0  0  0  0
   -4.7550    1.2549    2.4168 C   0  0  0  0  0  0  0  0  0  0  0  0
   -4.9463    1.3796    0.9309 C   0  0  0  0  0  0  0  0  0  0  0  0
   -4.8391    0.3370    0.0864 C   0  0  0  0  0  0  0  0  0  0  0  0
   -5.0358    0.5071   -1.3697 C   0  0  0  0  0  0  0  0  0  0  0  0
   -6.3424    0.8245   -1.7928 C   0  0  0  0  0  0  0  0  0  0  0  0
   -6.6556    0.9223   -3.1455 C   0  0  0  0  0  0  0  0  0  0  0  0
   -5.6678    0.6966   -4.0930 C   0  0  0  0  0  0  0  0  0  0  0  0
   -4.3662    0.3855   -3.6871 C   0  0  0  0  0  0  0  0  0  0  0  0
   -4.0067    0.2967   -2.3277 C   0  0  0  0  0  0  0  0  0  0  0  0
   -2.6833    0.0226   -1.9575 N   0  0  0  0  0  0  0  0  0  0  0  0
   -2.0251    1.0066   -1.0823 C   0  0  0  0  0  0  0  0  0  0  0  0
   -0.6181    1.3263   -1.5872 C   0  0  0  0  0  0  0  0  0  0  0  0
    0.2368    0.0469   -1.6615 C   0  0  0  0  0  0  0  0  0  0  0  0
   -0.5794   -1.1941   -2.0579 C   0  0  0  0  0  0  0  0  0  0  0  0
   -1.8278   -0.7814   -2.8347 C   0  0  0  0  0  0  0  0  0  0  0  0
    1.5566    0.2469   -2.4664 C   0  0  0  0  0  0  0  0  0  0  0  0
    2.2845    0.5790   -1.1323 C   0  0  0  0  0  0  0  0  0  0  0  0
    3.7351    0.0533   -0.9621 C   0  0  0  0  0  0  0  0  0  0  0  0
    4.3472   -0.4752   -1.8997 O   0  0  0  0  0  0  0  0  0  0  0  0
    4.3344    0.2043    0.2907 N   0  0  0  0  0  0  0  0  0  0  0  0
    3.6718    0.7982    1.4565 C   0  0  0  0  0  0  0  0  0  0  0  0
    4.6515    1.5654    2.3659 C   0  0  0  0  0  0  0  0  0  0  0  0
    5.8194    0.7530    2.7500 N   0  0  0  0  0  0  0  0  0  0  0  0
    6.7340    1.5222    3.5911 C   0  0  0  0  0  0  0  0  0  0  0  0
    6.5099    0.2788    1.5273 C   0  0  0  0  0  0  0  0  0  0  0  0
    5.5845   -0.5242    0.5704 C   0  0  1  0  0  0  0  0  0  0  0  0
    5.2580   -1.8884    1.1484 C   0  0  0  0  0  0  0  0  0  0  0  0
    4.8198   -3.0271    0.2594 C   0  0  0  0  0  0  0  0  0  0  0  0
    6.1775   -3.0605    0.9025 C   0  0  0  0  0  0  0  0  0  0  0  0
    1.1462   -0.2042   -0.4225 C   0  0  0  0  0  0  0  0  0  0  0  0
   -4.5001   -1.0421    0.5945 C   0  0  0  0  0  0  0  0  0  0  0  0
   -4.0053   -1.0129    2.0526 C   0  0  0  0  0  0  0  0  0  0  0  0
   -6.6400    0.0199    3.9017 H   0  0  0  0  0  0  0  0  0  0  0  0
   -6.1223   -1.6196    3.5524 H   0  0  0  0  0  0  0  0  0  0  0  0
   -6.7421   -0.5941    2.2430 H   0  0  0  0  0  0  0  0  0  0  0  0
   -5.5093    1.8630    2.9316 H   0  0  0  0  0  0  0  0  0  0  0  0
   -3.7887    1.7109    2.6673 H   0  0  0  0  0  0  0  0  0  0  0  0
   -5.1584    2.3759    0.5525 H   0  0  0  0  0  0  0  0  0  0  0  0
   -7.1311    0.9748   -1.0586 H   0  0  0  0  0  0  0  0  0  0  0  0
   -7.6687    1.1623   -3.4554 H   0  0  0  0  0  0  0  0  0  0  0  0
   -5.9017    0.7663   -5.1519 H   0  0  0  0  0  0  0  0  0  0  0  0
   -3.6220    0.2416   -4.4647 H   0  0  0  0  0  0  0  0  0  0  0  0
   -2.5872    1.9473   -1.0319 H   0  0  0  0  0  0  0  0  0  0  0  0
   -1.9603    0.5954   -0.0685 H   0  0  0  0  0  0  0  0  0  0  0  0
   -0.1557    2.0774   -0.9363 H   0  0  0  0  0  0  0  0  0  0  0  0
   -0.6940    1.7806   -2.5840 H   0  0  0  0  0  0  0  0  0  0  0  0
   -0.8900   -1.7378   -1.1555 H   0  0  0  0  0  0  0  0  0  0  0  0
    0.0199   -1.8908   -2.6544 H   0  0  0  0  0  0  0  0  0  0  0  0
   -1.5403   -0.2185   -3.7310 H   0  0  0  0  0  0  0  0  0  0  0  0
   -2.3599   -1.6863   -3.1518 H   0  0  0  0  0  0  0  0  0  0  0  0
    1.9270   -0.6590   -2.9619 H   0  0  0  0  0  0  0  0  0  0  0  0
    1.5535    1.0548   -3.2049 H   0  0  0  0  0  0  0  0  0  0  0  0
    2.2361    1.6612   -0.9422 H   0  0  0  0  0  0  0  0  0  0  0  0
    2.8844    1.4872    1.1429 H   0  0  0  0  0  0  0  0  0  0  0  0
    3.1915   -0.0153    2.0127 H   0  0  0  0  0  0  0  0  0  0  0  0
    4.1085    1.8819    3.2645 H   0  0  0  0  0  0  0  0  0  0  0  0
    4.9786    2.4748    1.8437 H   0  0  0  0  0  0  0  0  0  0  0  0
    7.5835    0.9029    3.8997 H   0  0  0  0  0  0  0  0  0  0  0  0
    6.2304    1.8454    4.5087 H   0  0  0  0  0  0  0  0  0  0  0  0
    7.1225    2.4105    3.0801 H   0  0  0  0  0  0  0  0  0  0  0  0
    7.3612   -0.3524    1.8116 H   0  0  0  0  0  0  0  0  0  0  0  0
    6.9111    1.1405    0.9761 H   0  0  0  0  0  0  0  0  0  0  0  0
    6.1319   -0.6608   -0.3705 H   0  0  0  0  0  0  0  0  0  0  0  0
    4.8058   -1.8228    2.1324 H   0  0  0  0  0  0  0  0  0  0  0  0
    4.7741   -2.8669   -0.8123 H   0  0  0  0  0  0  0  0  0  0  0  0
    4.0579   -3.6986    0.6376 H   0  0  0  0  0  0  0  0  0  0  0  0
    7.0404   -2.9245    0.2606 H   0  0  0  0  0  0  0  0  0  0  0  0
    6.3364   -3.7580    1.7171 H   0  0  0  0  0  0  0  0  0  0  0  0
    1.3907   -1.2590   -0.2428 H   0  0  0  0  0  0  0  0  0  0  0  0
    0.7919    0.2267    0.5189 H   0  0  0  0  0  0  0  0  0  0  0  0
   -3.7273   -1.5192   -0.0173 H   0  0  0  0  0  0  0  0  0  0  0  0
   -5.3954   -1.6724    0.5216 H   0  0  0  0  0  0  0  0  0  0  0  0
   -2.9544   -0.6926    2.0652 H   0  0  0  0  0  0  0  0  0  0  0  0
   -4.0005   -2.0324    2.4581 H   0  0  0  0  0  0  0  0  0  0  0  0
  1  2  1  0
  2  3  1  0
  3  4  1  0
  4  5  2  0
  5  6  1  0
  6  7  2  0
  7  8  1  0
  8  9  2  0
  9 10  1  0
 10 11  2  0
 11 12  1  0
 12 13  1  0
 13 14  1  0
 14 15  1  0
 15 16  1  0
 16 17  1  0
 15 18  1  0
 18 19  1  0
 19 20  1  0
 20 21  2  0
 20 22  1  0
 22 23  1  0
 23 24  1  0
 24 25  1  0
 25 26  1  0
 25 27  1  0
 27 28  1  0
 28 29  1  0
 29 30  1  0
 30 31  1  0
 19 32  1  0
  5 33  1  0
 33 34  1  0
 34  2  1  0
 11  6  1  0
 17 12  1  0
 28 22  1  0
 31 29  1  0
 32 15  1  0
  1 35  1  0
  1 36  1  0
  1 37  1  0
  3 38  1  0
  3 39  1  0
  4 40  1  0
  7 41  1  0
  8 42  1  0
  9 43  1  0
 10 44  1  0
 13 45  1  0
 13 46  1  0
 14 47  1  0
 14 48  1  0
 16 49  1  0
 16 50  1  0
 17 51  1  0
 17 52  1  0
 18 53  1  0
 18 54  1  0
 19 55  1  0
 23 56  1  0
 23 57  1  0
 24 58  1  0
 24 59  1  0
 26 60  1  0
 26 61  1  0
 26 62  1  0
 27 63  1  0
 27 64  1  0
 28 65  1  6
 29 66  1  0
 30 67  1  0
 30 68  1  0
 31 69  1  0
 31 70  1  0
 32 71  1  0
 32 72  1  0
 33 73  1  0
 33 74  1  0
 34 75  1  0
 34 76  1  0
M  END
$$$$
