
     RDKit          3D

 74 79  0  0  0  0  0  0  0  0999 V2000
   -0.7166    1.0014   -2.1521 O   0  0  0  0  0  0  0  0  0  0  0  0
   -0.2468   -0.0731   -1.7557 C   0  0  0  0  0  0  0  0  0  0  0  0
   -1.1297   -1.3390   -1.5549 C   0  0  0  0  0  0  0  0  0  0  0  0
   -1.3615   -1.8467   -0.1087 C   0  0  0  0  0  0  0  0  0  0  0  0
   -2.7871   -1.2345   -0.1281 C   0  0  0  0  0  0  0  0  0  0  0  0
   -3.8663   -2.1841    0.3970 C   0  0  0  0  0  0  0  0  0  0  0  0
   -5.2458   -1.5346    0.2594 C   0  0  0  0  0  0  0  0  0  0  0  0
   -5.2985   -0.2550    0.9856 N   0  0  0  0  0  0  0  0  0  0  0  0
   -6.6757    0.2816    1.0556 C   0  0  0  0  0  0  0  0  0  0  0  0
   -6.8160    1.3235    2.1795 C   0  0  0  0  0  0  0  0  0  0  0  0
   -8.2596    1.8023    2.2710 C   0  0  0  0  0  0  0  0  0  0  0  0
   -8.6986    2.3345    1.0217 O   0  0  0  0  0  0  0  0  0  0  0  0
   -8.6662    1.3625   -0.0218 C   0  0  0  0  0  0  0  0  0  0  0  0
   -7.2464    0.8570   -0.2514 C   0  0  0  0  0  0  0  0  0  0  0  0
   -4.3010    0.6869    0.4510 C   0  0  0  0  0  0  0  0  0  0  0  0
   -2.8849    0.1176    0.5888 C   0  0  0  0  0  0  0  0  0  0  0  0
   -2.6678   -1.1725   -1.6771 C   0  0  0  0  0  0  0  0  0  0  0  0
    1.1178   -0.1881   -1.4703 N   0  0  0  0  0  0  0  0  0  0  0  0
    1.7790   -1.4376   -1.0903 C   0  0  0  0  0  0  0  0  0  0  0  0
    3.2439   -1.4399   -1.5137 C   0  0  0  0  0  0  0  0  0  0  0  0
    4.0035   -0.2856   -0.8431 C   0  0  0  0  0  0  0  0  0  0  0  0
    3.1180    0.9483   -0.5794 C   0  0  0  0  0  0  0  0  0  0  0  0
    1.9599    1.0054   -1.5699 C   0  0  0  0  0  0  0  0  0  0  0  0
    5.3598    0.0267   -1.5503 C   0  0  0  0  0  0  0  0  0  0  0  0
    6.0035    0.1990   -0.1492 C   0  0  0  0  0  0  0  0  0  0  0  0
    7.4317   -0.3240    0.0019 C   0  0  2  0  0  0  0  0  0  0  0  0
    7.8742   -0.3002    1.4753 C   0  0  0  0  0  0  0  0  0  0  0  0
    8.0517    1.0234    1.9915 O   0  0  0  0  0  0  0  0  0  0  0  0
    8.6225    1.9304    1.0395 C   0  0  0  0  0  0  0  0  0  0  0  0
    9.2500    1.2292   -0.1615 C   0  0  0  0  0  0  0  0  0  0  0  0
    8.2843    0.4423   -0.8656 O   0  0  0  0  0  0  0  0  0  0  0  0
    4.8621   -0.6991    0.3961 C   0  0  0  0  0  0  0  0  0  0  0  0
   -0.7935   -2.1379   -2.2309 H   0  0  0  0  0  0  0  0  0  0  0  0
   -1.3332   -2.9408   -0.0340 H   0  0  0  0  0  0  0  0  0  0  0  0
   -0.6914   -1.4419    0.6561 H   0  0  0  0  0  0  0  0  0  0  0  0
   -3.8545   -3.1348   -0.1497 H   0  0  0  0  0  0  0  0  0  0  0  0
   -3.6747   -2.4235    1.4511 H   0  0  0  0  0  0  0  0  0  0  0  0
   -5.4866   -1.3945   -0.8015 H   0  0  0  0  0  0  0  0  0  0  0  0
   -5.9834   -2.2326    0.6734 H   0  0  0  0  0  0  0  0  0  0  0  0
   -7.3259   -0.5542    1.3538 H   0  0  0  0  0  0  0  0  0  0  0  0
   -6.5037    0.9007    3.1413 H   0  0  0  0  0  0  0  0  0  0  0  0
   -6.1808    2.1927    1.9747 H   0  0  0  0  0  0  0  0  0  0  0  0
   -8.3403    2.5981    3.0183 H   0  0  0  0  0  0  0  0  0  0  0  0
   -8.9314    0.9922    2.5787 H   0  0  0  0  0  0  0  0  0  0  0  0
   -9.3484    0.5401    0.2238 H   0  0  0  0  0  0  0  0  0  0  0  0
   -9.0414    1.8402   -0.9325 H   0  0  0  0  0  0  0  0  0  0  0  0
   -7.2513    0.1056   -1.0476 H   0  0  0  0  0  0  0  0  0  0  0  0
   -6.6331    1.7010   -0.5885 H   0  0  0  0  0  0  0  0  0  0  0  0
   -4.5009    0.9147   -0.6026 H   0  0  0  0  0  0  0  0  0  0  0  0
   -4.3256    1.6329    1.0008 H   0  0  0  0  0  0  0  0  0  0  0  0
   -2.1655    0.8385    0.1861 H   0  0  0  0  0  0  0  0  0  0  0  0
   -2.6428   -0.0063    1.6526 H   0  0  0  0  0  0  0  0  0  0  0  0
   -3.0161   -0.2489   -2.1488 H   0  0  0  0  0  0  0  0  0  0  0  0
   -3.1433   -2.0102   -2.2030 H   0  0  0  0  0  0  0  0  0  0  0  0
    1.6944   -1.5326   -0.0018 H   0  0  0  0  0  0  0  0  0  0  0  0
    1.2679   -2.2897   -1.5444 H   0  0  0  0  0  0  0  0  0  0  0  0
    3.7015   -2.4069   -1.2762 H   0  0  0  0  0  0  0  0  0  0  0  0
    3.2940   -1.3289   -2.6052 H   0  0  0  0  0  0  0  0  0  0  0  0
    3.6990    1.8759   -0.6354 H   0  0  0  0  0  0  0  0  0  0  0  0
    2.7036    0.8948    0.4358 H   0  0  0  0  0  0  0  0  0  0  0  0
    1.3623    1.9047   -1.3868 H   0  0  0  0  0  0  0  0  0  0  0  0
    2.3308    1.0566   -2.6004 H   0  0  0  0  0  0  0  0  0  0  0  0
    5.3785    0.9167   -2.1866 H   0  0  0  0  0  0  0  0  0  0  0  0
    5.7694   -0.8126   -2.1269 H   0  0  0  0  0  0  0  0  0  0  0  0
    5.9097    1.2337    0.2091 H   0  0  0  0  0  0  0  0  0  0  0  0
    7.4765   -1.3600   -0.3545 H   0  0  0  0  0  0  0  0  0  0  0  0
    7.1512   -0.8138    2.1169 H   0  0  0  0  0  0  0  0  0  0  0  0
    8.8320   -0.8223    1.5864 H   0  0  0  0  0  0  0  0  0  0  0  0
    7.8188    2.5970    0.7090 H   0  0  0  0  0  0  0  0  0  0  0  0
    9.3663    2.5393    1.5622 H   0  0  0  0  0  0  0  0  0  0  0  0
    9.6582    1.9636   -0.8624 H   0  0  0  0  0  0  0  0  0  0  0  0
   10.0696    0.5707    0.1477 H   0  0  0  0  0  0  0  0  0  0  0  0
    4.4719   -0.4102    1.3767 H   0  0  0  0  0  0  0  0  0  0  0  0
    5.1185   -1.7651    0.4356 H   0  0  0  0  0  0  0  0  0  0  0  0
  1  2  2  0
  2  3  1  0
  3  4  1  0
  4  5  1  0
  5  6  1  0
  6  7  1  0
  7  8  1  0
  8  9  1  0
  9 10  1  0
 10 11  1  0
 11 12  1  0
 12 13  1  0
 13 14  1  0
  8 15  1  0
 15 16  1  0
  5 17  1  0
  2 18  1  0
 18 19  1  0
 19 20  1  0
 20 21  1  0
 21 22  1  0
 22 23  1  0
 21 24  1  0
 24 25  1  0
 25 26  1  0
 26 27  1  0
 27 28  1  0
 28 29  1  0
 29 30  1  0
 30 31  1  0
 25 32  1  0
 17  3  1  0
 23 18  1  0
 31 26  1  0
 16  5  1  0
 32 21  1  0
 14  9  1  0
  3 33  1  0
  4 34  1  0
  4 35  1  0
  6 36  1  0
  6 37  1  0
  7 38  1  0
  7 39  1  0
  9 40  1  0
 10 41  1  0
 10 42  1  0
 11 43  1  0
 11 44  1  0
 13 45  1  0
 13 46  1  0
 14 47  1  0
 14 48  1  0
 15 49  1  0
 15 50  1  0
 16 51  1  0
 16 52  1  0
 17 53  1  0
 17 54  1  0
 19 55  1  0
 19 56  1  0
 20 57  1  0
 20 58  1  0
 22 59  1  0
 22 60  1  0
 23 61  1  0
 23 62  1  0
 24 63  1  0
 24 64  1  0
 25 65  1  0
 26 66  1  6
 27 67  1  0
 27 68  1  0
 29 69  1  0
 29 70  1  0
 30 71  1  0
 30 72  1  0
 32 73  1  0
 32 74  1  0
M  END
$$$$

     RDKit          3D

 74 79  0  0  0  0  0  0  0  0999 V2000
   -0.0910   -2.5680   -2.6773 O   0  0  0  0  0  0  0  0  0  0  0  0
   -0.1903   -1.4960   -2.0667 C   0  0  0  0  0  0  0  0  0  0  0  0
    1.0522   -0.6409   -1.6958 C   0  0  0  0  0  0  0  0  0  0  0  0
    1.4223   -0.5060   -0.1936 C   0  0  0  0  0  0  0  0  0  0  0  0
    2.9282   -0.5703   -0.5928 C   0  0  0  0  0  0  0  0  0  0  0  0
    3.5566    0.8142   -0.8231 C   0  0  0  0  0  0  0  0  0  0  0  0
    5.0733    0.7382   -0.6389 C   0  0  0  0  0  0  0  0  0  0  0  0
    5.4346    0.4103    0.7537 N   0  0  0  0  0  0  0  0  0  0  0  0
    6.8694    0.0688    0.9261 C   0  0  0  0  0  0  0  0  0  0  0  0
    7.8234    1.0005    0.1410 C   0  0  0  0  0  0  0  0  0  0  0  0
    9.2517    0.9720    0.6796 C   0  0  0  0  0  0  0  0  0  0  0  0
    9.5069   -0.2489    1.3604 O   0  0  0  0  0  0  0  0  0  0  0  0
    8.7417   -0.3608    2.5606 C   0  0  0  0  0  0  0  0  0  0  0  0
    7.3001    0.1253    2.4020 C   0  0  0  0  0  0  0  0  0  0  0  0
    4.5285   -0.6023    1.3393 C   0  0  0  0  0  0  0  0  0  0  0  0
    3.8010   -1.4574    0.3005 C   0  0  0  0  0  0  0  0  0  0  0  0
    2.4504   -1.2971   -1.8845 C   0  0  0  0  0  0  0  0  0  0  0  0
   -1.4432   -1.0101   -1.6799 N   0  0  0  0  0  0  0  0  0  0  0  0
   -1.6572    0.2846   -1.0327 C   0  0  0  0  0  0  0  0  0  0  0  0
   -3.0576    0.8210   -1.3081 C   0  0  0  0  0  0  0  0  0  0  0  0
   -4.1235   -0.1526   -0.7842 C   0  0  0  0  0  0  0  0  0  0  0  0
   -3.6811   -1.6279   -0.8519 C   0  0  0  0  0  0  0  0  0  0  0  0
   -2.6288   -1.8295   -1.9372 C   0  0  0  0  0  0  0  0  0  0  0  0
   -5.5362    0.1302   -1.3853 C   0  0  0  0  0  0  0  0  0  0  0  0
   -6.1395   -0.1225    0.0210 C   0  0  0  0  0  0  0  0  0  0  0  0
   -7.3070    0.7703    0.4224 C   0  0  2  0  0  0  0  0  0  0  0  0
   -7.6721    0.5396    1.8972 C   0  0  0  0  0  0  0  0  0  0  0  0
   -8.7555    1.3766    2.3253 O   0  0  0  0  0  0  0  0  0  0  0  0
   -9.6768    1.6752    1.2667 C   0  0  0  0  0  0  0  0  0  0  0  0
   -9.6859    0.5978    0.1846 C   0  0  0  0  0  0  0  0  0  0  0  0
   -8.4084    0.4712   -0.4551 O   0  0  0  0  0  0  0  0  0  0  0  0
   -4.7451    0.2377    0.5961 C   0  0  0  0  0  0  0  0  0  0  0  0
    1.0227    0.3315   -2.2088 H   0  0  0  0  0  0  0  0  0  0  0  0
    1.0942    0.4197    0.2888 H   0  0  0  0  0  0  0  0  0  0  0  0
    1.0736   -1.3471    0.4185 H   0  0  0  0  0  0  0  0  0  0  0  0
    3.3261    1.1935   -1.8255 H   0  0  0  0  0  0  0  0  0  0  0  0
    3.1474    1.5442   -0.1123 H   0  0  0  0  0  0  0  0  0  0  0  0
    5.4873    1.7168   -0.9052 H   0  0  0  0  0  0  0  0  0  0  0  0
    5.4876   -0.0011   -1.3368 H   0  0  0  0  0  0  0  0  0  0  0  0
    7.0255   -0.9538    0.5526 H   0  0  0  0  0  0  0  0  0  0  0  0
    7.4793    2.0421    0.1579 H   0  0  0  0  0  0  0  0  0  0  0  0
    7.8346    0.6935   -0.9125 H   0  0  0  0  0  0  0  0  0  0  0  0
    9.4339    1.8128    1.3603 H   0  0  0  0  0  0  0  0  0  0  0  0
    9.9662    1.0660   -0.1446 H   0  0  0  0  0  0  0  0  0  0  0  0
    8.7477   -1.4197    2.8402 H   0  0  0  0  0  0  0  0  0  0  0  0
    9.2476    0.1875    3.3631 H   0  0  0  0  0  0  0  0  0  0  0  0
    6.6619   -0.4585    3.0720 H   0  0  0  0  0  0  0  0  0  0  0  0
    7.2310    1.1629    2.7570 H   0  0  0  0  0  0  0  0  0  0  0  0
    3.7860   -0.0666    1.9442 H   0  0  0  0  0  0  0  0  0  0  0  0
    5.0453   -1.2784    2.0274 H   0  0  0  0  0  0  0  0  0  0  0  0
    3.1987   -2.2223    0.8045 H   0  0  0  0  0  0  0  0  0  0  0  0
    4.5412   -1.9982   -0.3040 H   0  0  0  0  0  0  0  0  0  0  0  0
    2.4434   -2.3916   -1.8057 H   0  0  0  0  0  0  0  0  0  0  0  0
    2.9724   -1.0279   -2.8079 H   0  0  0  0  0  0  0  0  0  0  0  0
   -0.9157    1.0065   -1.3840 H   0  0  0  0  0  0  0  0  0  0  0  0
   -1.5064    0.1382    0.0430 H   0  0  0  0  0  0  0  0  0  0  0  0
   -3.1779    0.9500   -2.3920 H   0  0  0  0  0  0  0  0  0  0  0  0
   -3.1735    1.8146   -0.8604 H   0  0  0  0  0  0  0  0  0  0  0  0
   -4.5336   -2.2919   -1.0349 H   0  0  0  0  0  0  0  0  0  0  0  0
   -3.2469   -1.9275    0.1109 H   0  0  0  0  0  0  0  0  0  0  0  0
   -3.0199   -1.5375   -2.9190 H   0  0  0  0  0  0  0  0  0  0  0  0
   -2.3536   -2.8880   -1.9912 H   0  0  0  0  0  0  0  0  0  0  0  0
   -5.8730   -0.5545   -2.1696 H   0  0  0  0  0  0  0  0  0  0  0  0
   -5.6726    1.1570   -1.7484 H   0  0  0  0  0  0  0  0  0  0  0  0
   -6.3840   -1.1845    0.1720 H   0  0  0  0  0  0  0  0  0  0  0  0
   -7.0595    1.8278    0.2677 H   0  0  0  0  0  0  0  0  0  0  0  0
   -7.9730   -0.5013    2.0666 H   0  0  0  0  0  0  0  0  0  0  0  0
   -6.8198    0.7424    2.5535 H   0  0  0  0  0  0  0  0  0  0  0  0
   -9.3835    2.6416    0.8415 H   0  0  0  0  0  0  0  0  0  0  0  0
  -10.6703    1.7879    1.7108 H   0  0  0  0  0  0  0  0  0  0  0  0
   -9.9419   -0.3783    0.6116 H   0  0  0  0  0  0  0  0  0  0  0  0
  -10.4236    0.8322   -0.5886 H   0  0  0  0  0  0  0  0  0  0  0  0
   -4.4299   -0.3578    1.4582 H   0  0  0  0  0  0  0  0  0  0  0  0
   -4.6362    1.2971    0.8598 H   0  0  0  0  0  0  0  0  0  0  0  0
  1  2  2  0
  2  3  1  0
  3  4  1  0
  4  5  1  0
  5  6  1  0
  6  7  1  0
  7  8  1  0
  8  9  1  0
  9 10  1  0
 10 11  1  0
 11 12  1  0
 12 13  1  0
 13 14  1  0
  8 15  1  0
 15 16  1  0
  5 17  1  0
  2 18  1  0
 18 19  1  0
 19 20  1  0
 20 21  1  0
 21 22  1  0
 22 23  1  0
 21 24  1  0
 24 25  1  0
 25 26  1  0
 26 27  1  0
 27 28  1  0
 28 29  1  0
 29 30  1  0
 30 31  1  0
 25 32  1  0
 17  3  1  0
 23 18  1  0
 31 26  1  0
 16  5  1  0
 32 21  1  0
 14  9  1  0
  3 33  1  0
  4 34  1  0
  4 35  1  0
  6 36  1  0
  6 37  1  0
  7 38  1  0
  7 39  1  0
  9 40  1  0
 10 41  1  0
 10 42  1  0
 11 43  1  0
 11 44  1  0
 13 45  1  0
 13 46  1  0
 14 47  1  0
 14 48  1  0
 15 49  1  0
 15 50  1  0
 16 51  1  0
 16 52  1  0
 17 53  1  0
 17 54  1  0
 19 55  1  0
 19 56  1  0
 20 57  1  0
 20 58  1  0
 22 59  1  0
 22 60  1  0
 23 61  1  0
 23 62  1  0
 24 63  1  0
 24 64  1  0
 25 65  1  0
 26 66  1  1
 27 67  1  0
 27 68  1  0
 29 69  1  0
 29 70  1  0
 30 71  1  0
 30 72  1  0
 32 73  1  0
 32 74  1  0
M  END
$$$$

     RDKit          3D

 74 79  0  0  0  0  0  0  0  0999 V2000
   -0.2912   -1.3021   -3.0051 O   0  0  0  0  0  0  0  0  0  0  0  0
   -0.3650   -0.8106   -1.8710 C   0  0  0  0  0  0  0  0  0  0  0  0
    0.8765   -0.2027   -1.1618 C   0  0  0  0  0  0  0  0  0  0  0  0
    2.2430   -0.3029   -1.8986 C   0  0  0  0  0  0  0  0  0  0  0  0
    2.9280   -0.5528   -0.5205 C   0  0  0  0  0  0  0  0  0  0  0  0
    3.9808   -1.6670   -0.5060 C   0  0  0  0  0  0  0  0  0  0  0  0
    5.3789   -1.0555   -0.6085 C   0  0  0  0  0  0  0  0  0  0  0  0
    5.7249   -0.2221    0.5615 N   0  0  0  0  0  0  0  0  0  0  0  0
    6.8278    0.7405    0.2914 C   0  0  0  0  0  0  0  0  0  0  0  0
    8.0636    0.1362   -0.4208 C   0  0  0  0  0  0  0  0  0  0  0  0
    9.0857   -0.3538    0.5911 C   0  0  0  0  0  0  0  0  0  0  0  0
    9.6336    0.7166    1.3634 O   0  0  0  0  0  0  0  0  0  0  0  0
    8.7563    1.8268    1.5473 C   0  0  0  0  0  0  0  0  0  0  0  0
    7.2939    1.4113    1.6101 C   0  0  0  0  0  0  0  0  0  0  0  0
    4.5281    0.3995    1.1669 C   0  0  0  0  0  0  0  0  0  0  0  0
    3.4418    0.7366    0.1445 C   0  0  0  0  0  0  0  0  0  0  0  0
    1.5325   -1.0372   -0.0271 C   0  0  0  0  0  0  0  0  0  0  0  0
   -1.5874   -0.7898   -1.1772 N   0  0  0  0  0  0  0  0  0  0  0  0
   -1.8161    0.0632   -0.0109 C   0  0  0  0  0  0  0  0  0  0  0  0
   -2.8858   -0.5008    0.9217 C   0  0  0  0  0  0  0  0  0  0  0  0
   -4.1648   -0.8186    0.1368 C   0  0  0  0  0  0  0  0  0  0  0  0
   -3.8515   -1.7912   -1.0023 C   0  0  0  0  0  0  0  0  0  0  0  0
   -2.7823   -1.2002   -1.9161 C   0  0  0  0  0  0  0  0  0  0  0  0
   -5.3539   -1.2825    1.0343 C   0  0  0  0  0  0  0  0  0  0  0  0
   -5.8585    0.1845    1.0475 C   0  0  0  0  0  0  0  0  0  0  0  0
   -7.3543    0.4916    1.0852 C   0  0  2  0  0  0  0  0  0  0  0  0
   -8.1643   -0.2128   -0.0142 C   0  0  0  0  0  0  0  0  0  0  0  0
   -9.5718    0.0548    0.0978 O   0  0  0  0  0  0  0  0  0  0  0  0
   -9.8497    1.3527    0.6413 C   0  0  0  0  0  0  0  0  0  0  0  0
   -8.7153    2.3417    0.3868 C   0  0  0  0  0  0  0  0  0  0  0  0
   -7.4932    1.9252    1.0111 O   0  0  0  0  0  0  0  0  0  0  0  0
   -5.0486    0.4081   -0.2566 C   0  0  0  0  0  0  0  0  0  0  0  0
    0.6926    0.8410   -0.8675 H   0  0  0  0  0  0  0  0  0  0  0  0
    2.3140   -1.1458   -2.5971 H   0  0  0  0  0  0  0  0  0  0  0  0
    2.5479    0.6017   -2.4339 H   0  0  0  0  0  0  0  0  0  0  0  0
    3.9071   -2.2527    0.4199 H   0  0  0  0  0  0  0  0  0  0  0  0
    3.8210   -2.3728   -1.3295 H   0  0  0  0  0  0  0  0  0  0  0  0
    6.0976   -1.8788   -0.6836 H   0  0  0  0  0  0  0  0  0  0  0  0
    5.4348   -0.4675   -1.5341 H   0  0  0  0  0  0  0  0  0  0  0  0
    6.4341    1.5213   -0.3743 H   0  0  0  0  0  0  0  0  0  0  0  0
    7.8134   -0.6620   -1.1231 H   0  0  0  0  0  0  0  0  0  0  0  0
    8.5227    0.9262   -1.0310 H   0  0  0  0  0  0  0  0  0  0  0  0
    9.9204   -0.8437    0.0796 H   0  0  0  0  0  0  0  0  0  0  0  0
    8.6472   -1.0894    1.2749 H   0  0  0  0  0  0  0  0  0  0  0  0
    8.9255    2.5437    0.7356 H   0  0  0  0  0  0  0  0  0  0  0  0
    9.0479    2.3233    2.4786 H   0  0  0  0  0  0  0  0  0  0  0  0
    6.6790    2.2917    1.8277 H   0  0  0  0  0  0  0  0  0  0  0  0
    7.1751    0.7104    2.4473 H   0  0  0  0  0  0  0  0  0  0  0  0
    4.1214   -0.3080    1.9014 H   0  0  0  0  0  0  0  0  0  0  0  0
    4.7645    1.2988    1.7422 H   0  0  0  0  0  0  0  0  0  0  0  0
    2.6265    1.2777    0.6389 H   0  0  0  0  0  0  0  0  0  0  0  0
    3.8570    1.4184   -0.6086 H   0  0  0  0  0  0  0  0  0  0  0  0
    1.3648   -2.1172   -0.1274 H   0  0  0  0  0  0  0  0  0  0  0  0
    1.2633   -0.7466    0.9928 H   0  0  0  0  0  0  0  0  0  0  0  0
   -0.8962    0.1999    0.5603 H   0  0  0  0  0  0  0  0  0  0  0  0
   -2.1101    1.0489   -0.3902 H   0  0  0  0  0  0  0  0  0  0  0  0
   -3.0753    0.2137    1.7306 H   0  0  0  0  0  0  0  0  0  0  0  0
   -2.5078   -1.4189    1.3899 H   0  0  0  0  0  0  0  0  0  0  0  0
   -4.7495   -2.0179   -1.5890 H   0  0  0  0  0  0  0  0  0  0  0  0
   -3.4919   -2.7414   -0.5870 H   0  0  0  0  0  0  0  0  0  0  0  0
   -3.1620   -0.3101   -2.4323 H   0  0  0  0  0  0  0  0  0  0  0  0
   -2.5251   -1.9375   -2.6840 H   0  0  0  0  0  0  0  0  0  0  0  0
   -5.0865   -1.6876    2.0153 H   0  0  0  0  0  0  0  0  0  0  0  0
   -6.0231   -1.9993    0.5468 H   0  0  0  0  0  0  0  0  0  0  0  0
   -5.3940    0.7305    1.8856 H   0  0  0  0  0  0  0  0  0  0  0  0
   -7.7533    0.1947    2.0633 H   0  0  0  0  0  0  0  0  0  0  0  0
   -8.0442   -1.2983    0.0253 H   0  0  0  0  0  0  0  0  0  0  0  0
   -7.8559    0.1170   -1.0119 H   0  0  0  0  0  0  0  0  0  0  0  0
  -10.7829    1.7088    0.1949 H   0  0  0  0  0  0  0  0  0  0  0  0
  -10.0144    1.2280    1.7173 H   0  0  0  0  0  0  0  0  0  0  0  0
   -8.5221    2.4429   -0.6870 H   0  0  0  0  0  0  0  0  0  0  0  0
   -8.9691    3.3310    0.7787 H   0  0  0  0  0  0  0  0  0  0  0  0
   -5.6162    0.2650   -1.1823 H   0  0  0  0  0  0  0  0  0  0  0  0
   -4.5396    1.3744   -0.3200 H   0  0  0  0  0  0  0  0  0  0  0  0
  1  2  2  0
  2  3  1  0
  3  4  1  0
  4  5  1  0
  5  6  1  0
  6  7  1  0
  7  8  1  0
  8  9  1  0
  9 10  1  0
 10 11  1  0
 11 12  1  0
 12 13  1  0
 13 14  1  0
  8 15  1  0
 15 16  1  0
  5 17  1  0
  2 18  1  0
 18 19  1  0
 19 20  1  0
 20 21  1  0
 21 22  1  0
 22 23  1  0
 21 24  1  0
 24 25  1  0
 25 26  1  0
 26 27  1  0
 27 28  1  0
 28 29  1  0
 29 30  1  0
 30 31  1  0
 25 32  1  0
 17  3  1  0
 23 18  1  0
 31 26  1  0
 16  5  1  0
 32 21  1  0
 14  9  1  0
  3 33  1  0
  4 34  1  0
  4 35  1  0
  6 36  1  0
  6 37  1  0
  7 38  1  0
  7 39  1  0
  9 40  1  0
 10 41  1  0
 10 42  1  0
 11 43  1  0
 11 44  1  0
 13 45  1  0
 13 46  1  0
 14 47  1  0
 14 48  1  0
 15 49  1  0
 15 50  1  0
 16 51  1  0
 16 52  1  0
 17 53  1  0
 17 54  1  0
 19 55  1  0
 19 56  1  0
 20 57  1  0
 20 58  1  0
 22 59  1  0
 22 60  1  0
 23 61  1  0
 23 62  1  0
 24 63  1  0
 24 64  1  0
 25 65  1  0
 26 66  1  1
 27 67  1  0
 27 68  1  0
 29 69  1  0
 29 70  1  0
 30 71  1  0
 30 72  1  0
 32 73  1  0
 32 74  1  0
M  END
$$$$
