
     RDKit          3D

 83 88  0  0  0  0  0  0  0  0999 V2000
    9.6378   -1.0863   -0.5431 C   0  0  0  0  0  0  0  0  0  0  0  0
    8.2726   -1.7590   -0.6993 C   0  0  0  0  0  0  0  0  0  0  0  0
    7.8969   -1.8417   -2.1766 C   0  0  0  0  0  0  0  0  0  0  0  0
    7.2405   -1.0129    0.1553 C   0  0  0  0  0  0  0  0  0  0  0  0
    5.7499   -1.4447    0.1250 C   0  0  0  0  0  0  0  0  0  0  0  0
    5.3583    0.0526    0.3569 C   0  0  0  0  0  0  0  0  0  0  0  0
    4.2035    0.5582   -0.5204 C   0  0  0  0  0  0  0  0  0  0  0  0
    2.9057    0.6094    0.2803 C   0  0  0  0  0  0  0  0  0  0  0  0
    3.0139    1.5342    1.4077 N   0  0  0  0  0  0  0  0  0  0  0  0
    1.9985    2.3635    1.9024 C   0  0  0  0  0  0  0  0  0  0  0  0
    2.2859    3.2223    2.7561 O   0  0  0  0  0  0  0  0  0  0  0  0
    0.5357    2.2392    1.4487 C   0  0  0  0  0  0  0  0  0  0  0  0
    0.1082    2.6891    0.0362 C   0  0  0  0  0  0  0  0  0  0  0  0
   -0.9718    1.5652    0.0362 C   0  0  0  0  0  0  0  0  0  0  0  0
   -2.3749    2.0771    0.3963 C   0  0  0  0  0  0  0  0  0  0  0  0
   -3.3555    0.9080    0.5080 C   0  0  0  0  0  0  0  0  0  0  0  0
   -3.3327    0.0956   -0.7152 N   0  0  0  0  0  0  0  0  0  0  0  0
   -4.3866    0.2651   -1.6169 C   0  0  0  0  0  0  0  0  0  0  0  0
   -4.1509    0.7452   -2.9188 C   0  0  0  0  0  0  0  0  0  0  0  0
   -5.1890    0.9633   -3.8300 C   0  0  0  0  0  0  0  0  0  0  0  0
   -6.5006    0.6969   -3.4653 C   0  0  0  0  0  0  0  0  0  0  0  0
   -6.7701    0.2001   -2.1933 C   0  0  0  0  0  0  0  0  0  0  0  0
   -5.7331   -0.0278   -1.2658 C   0  0  0  0  0  0  0  0  0  0  0  0
   -6.1227   -0.6479    0.0216 C   0  0  0  0  0  0  0  0  0  0  0  0
   -6.9274   -0.0049    0.8889 C   0  0  0  0  0  0  0  0  0  0  0  0
   -7.3553   -0.5920    2.2051 C   0  0  0  0  0  0  0  0  0  0  0  0
   -7.1216   -2.0360    2.3566 N   0  0  0  0  0  0  0  0  0  0  0  0
   -8.1919   -2.8202    1.7418 C   0  0  0  0  0  0  0  0  0  0  0  0
   -5.7989   -2.3964    1.8175 C   0  0  0  0  0  0  0  0  0  0  0  0
   -5.5851   -2.0209    0.3393 C   0  0  0  0  0  0  0  0  0  0  0  0
   -2.0208   -0.3763   -1.1606 C   0  0  0  0  0  0  0  0  0  0  0  0
   -1.0144    0.7690   -1.2722 C   0  0  0  0  0  0  0  0  0  0  0  0
   -0.1815    0.8963    1.2064 C   0  0  0  0  0  0  0  0  0  0  0  0
    4.3487    1.6764    2.0009 C   0  0  0  0  0  0  0  0  0  0  0  0
    5.1767    0.4050    1.8454 C   0  0  0  0  0  0  0  0  0  0  0  0
    6.7596    0.4111   -0.2345 C   0  0  0  0  0  0  0  0  0  0  0  0
    9.9407   -1.0574    0.5091 H   0  0  0  0  0  0  0  0  0  0  0  0
   10.4078   -1.6311   -1.0994 H   0  0  0  0  0  0  0  0  0  0  0  0
    9.6184   -0.0543   -0.9103 H   0  0  0  0  0  0  0  0  0  0  0  0
    8.3570   -2.7840   -0.3165 H   0  0  0  0  0  0  0  0  0  0  0  0
    7.8131   -0.8518   -2.6351 H   0  0  0  0  0  0  0  0  0  0  0  0
    8.6586   -2.3984   -2.7339 H   0  0  0  0  0  0  0  0  0  0  0  0
    6.9461   -2.3620   -2.3220 H   0  0  0  0  0  0  0  0  0  0  0  0
    7.6051   -1.0259    1.1962 H   0  0  0  0  0  0  0  0  0  0  0  0
    5.4583   -2.1495    0.9101 H   0  0  0  0  0  0  0  0  0  0  0  0
    5.4058   -1.8531   -0.8309 H   0  0  0  0  0  0  0  0  0  0  0  0
    4.0730   -0.0734   -1.4064 H   0  0  0  0  0  0  0  0  0  0  0  0
    4.4309    1.5686   -0.8855 H   0  0  0  0  0  0  0  0  0  0  0  0
    2.0956    0.9040   -0.3823 H   0  0  0  0  0  0  0  0  0  0  0  0
    2.6741   -0.3799    0.6910 H   0  0  0  0  0  0  0  0  0  0  0  0
   -0.0663    2.8044    2.1852 H   0  0  0  0  0  0  0  0  0  0  0  0
    0.8782    2.5942   -0.7357 H   0  0  0  0  0  0  0  0  0  0  0  0
   -0.2765    3.7136   -0.0174 H   0  0  0  0  0  0  0  0  0  0  0  0
   -2.3648    2.6321    1.3416 H   0  0  0  0  0  0  0  0  0  0  0  0
   -2.7222    2.7732   -0.3781 H   0  0  0  0  0  0  0  0  0  0  0  0
   -4.3462    1.3162    0.7316 H   0  0  0  0  0  0  0  0  0  0  0  0
   -3.0813    0.2656    1.3531 H   0  0  0  0  0  0  0  0  0  0  0  0
   -3.1441    0.9858   -3.2428 H   0  0  0  0  0  0  0  0  0  0  0  0
   -4.9662    1.3462   -4.8222 H   0  0  0  0  0  0  0  0  0  0  0  0
   -7.3108    0.8624   -4.1696 H   0  0  0  0  0  0  0  0  0  0  0  0
   -7.7990   -0.0346   -1.9286 H   0  0  0  0  0  0  0  0  0  0  0  0
   -7.2846    0.9978    0.6701 H   0  0  0  0  0  0  0  0  0  0  0  0
   -8.4137   -0.3607    2.3783 H   0  0  0  0  0  0  0  0  0  0  0  0
   -6.8062   -0.0682    2.9979 H   0  0  0  0  0  0  0  0  0  0  0  0
   -8.3179   -2.6220    0.6722 H   0  0  0  0  0  0  0  0  0  0  0  0
   -9.1464   -2.6115    2.2381 H   0  0  0  0  0  0  0  0  0  0  0  0
   -8.0044   -3.8920    1.8718 H   0  0  0  0  0  0  0  0  0  0  0  0
   -5.0329   -1.8954    2.4256 H   0  0  0  0  0  0  0  0  0  0  0  0
   -5.6175   -3.4701    1.9524 H   0  0  0  0  0  0  0  0  0  0  0  0
   -6.0914   -2.7522   -0.3035 H   0  0  0  0  0  0  0  0  0  0  0  0
   -4.5151   -2.0993    0.1227 H   0  0  0  0  0  0  0  0  0  0  0  0
   -2.0841   -0.9250   -2.1080 H   0  0  0  0  0  0  0  0  0  0  0  0
   -1.6584   -1.1005   -0.4199 H   0  0  0  0  0  0  0  0  0  0  0  0
   -1.2866    1.4387   -2.0955 H   0  0  0  0  0  0  0  0  0  0  0  0
   -0.0277    0.3588   -1.5166 H   0  0  0  0  0  0  0  0  0  0  0  0
    0.4448    0.0547    0.9046 H   0  0  0  0  0  0  0  0  0  0  0  0
   -0.7862    0.5542    2.0533 H   0  0  0  0  0  0  0  0  0  0  0  0
    4.2585    1.9235    3.0645 H   0  0  0  0  0  0  0  0  0  0  0  0
    4.8379    2.5221    1.5028 H   0  0  0  0  0  0  0  0  0  0  0  0
    6.1429    0.5292    2.3473 H   0  0  0  0  0  0  0  0  0  0  0  0
    4.6563   -0.4141    2.3587 H   0  0  0  0  0  0  0  0  0  0  0  0
    6.7477    0.6129   -1.3113 H   0  0  0  0  0  0  0  0  0  0  0  0
    7.2919    1.2325    0.2553 H   0  0  0  0  0  0  0  0  0  0  0  0
  1  2  1  0
  2  3  1  0
  2  4  1  0
  4  5  1  0
  5  6  1  0
  6  7  1  0
  7  8  1  0
  8  9  1  0
  9 10  1  0
 10 11  2  0
 10 12  1  0
 12 13  1  0
 13 14  1  0
 14 15  1  0
 15 16  1  0
 16 17  1  0
 17 18  1  0
 18 19  2  0
 19 20  1  0
 20 21  2  0
 21 22  1  0
 22 23  2  0
 23 24  1  0
 24 25  2  0
 25 26  1  0
 26 27  1  0
 27 28  1  0
 27 29  1  0
 29 30  1  0
 17 31  1  0
 31 32  1  0
 14 33  1  0
  9 34  1  0
 34 35  1  0
  6 36  1  0
 36  4  1  0
 35  6  1  0
 33 12  1  0
 32 14  1  0
 23 18  1  0
 30 24  1  0
  1 37  1  0
  1 38  1  0
  1 39  1  0
  2 40  1  0
  3 41  1  0
  3 42  1  0
  3 43  1  0
  4 44  1  0
  5 45  1  0
  5 46  1  0
  7 47  1  0
  7 48  1  0
  8 49  1  0
  8 50  1  0
 12 51  1  0
 13 52  1  0
 13 53  1  0
 15 54  1  0
 15 55  1  0
 16 56  1  0
 16 57  1  0
 19 58  1  0
 20 59  1  0
 21 60  1  0
 22 61  1  0
 25 62  1  0
 26 63  1  0
 26 64  1  0
 28 65  1  0
 28 66  1  0
 28 67  1  0
 29 68  1  0
 29 69  1  0
 30 70  1  0
 30 71  1  0
 31 72  1  0
 31 73  1  0
 32 74  1  0
 32 75  1  0
 33 76  1  0
 33 77  1  0
 34 78  1  0
 34 79  1  0
 35 80  1  0
 35 81  1  0
 36 82  1  0
 36 83  1  0
M  END
$$$$

     RDKit          3D

 83 88  0  0  0  0  0  0  0  0999 V2000
    9.3588   -0.3803    1.5281 C   0  0  0  0  0  0  0  0  0  0  0  0
    8.8634    0.3556    0.2839 C   0  0  0  0  0  0  0  0  0  0  0  0
    9.4114    1.7818    0.2616 C   0  0  0  0  0  0  0  0  0  0  0  0
    7.3335    0.3876    0.2750 C   0  0  0  0  0  0  0  0  0  0  0  0
    6.6059   -0.9655    0.0523 C   0  0  0  0  0  0  0  0  0  0  0  0
    5.5612   -0.2164   -0.8266 C   0  0  0  0  0  0  0  0  0  0  0  0
    5.1775   -0.9895   -2.0990 C   0  0  0  0  0  0  0  0  0  0  0  0
    4.2315   -0.1441   -2.9519 C   0  0  0  0  0  0  0  0  0  0  0  0
    3.0652    0.2429   -2.1608 N   0  0  0  0  0  0  0  0  0  0  0  0
    1.8437   -0.3991   -2.3922 C   0  0  0  0  0  0  0  0  0  0  0  0
    1.7204   -1.2047   -3.3239 O   0  0  0  0  0  0  0  0  0  0  0  0
    0.6604   -0.0535   -1.4475 C   0  0  0  0  0  0  0  0  0  0  0  0
    0.5979   -0.7925   -0.0835 C   0  0  0  0  0  0  0  0  0  0  0  0
   -0.9467   -0.8857   -0.2347 C   0  0  0  0  0  0  0  0  0  0  0  0
   -1.5093   -2.2497    0.1779 C   0  0  0  0  0  0  0  0  0  0  0  0
   -3.0099   -2.3079   -0.1074 C   0  0  0  0  0  0  0  0  0  0  0  0
   -3.7181   -1.1743    0.4928 N   0  0  0  0  0  0  0  0  0  0  0  0
   -4.4433   -1.3160    1.6783 C   0  0  0  0  0  0  0  0  0  0  0  0
   -3.9882   -2.1667    2.7034 C   0  0  0  0  0  0  0  0  0  0  0  0
   -4.6695   -2.3000    3.9173 C   0  0  0  0  0  0  0  0  0  0  0  0
   -5.8394   -1.5885    4.1385 C   0  0  0  0  0  0  0  0  0  0  0  0
   -6.3329   -0.7550    3.1390 C   0  0  0  0  0  0  0  0  0  0  0  0
   -5.6581   -0.6136    1.9089 C   0  0  0  0  0  0  0  0  0  0  0  0
   -6.3255    0.2206    0.8827 C   0  0  0  0  0  0  0  0  0  0  0  0
   -6.5233    1.5384    1.0772 C   0  0  0  0  0  0  0  0  0  0  0  0
   -7.1993    2.4267    0.0702 C   0  0  0  0  0  0  0  0  0  0  0  0
   -7.9293    1.7277   -0.9977 N   0  0  0  0  0  0  0  0  0  0  0  0
   -9.2666    1.3281   -0.5615 C   0  0  0  0  0  0  0  0  0  0  0  0
   -7.1449    0.5780   -1.4815 C   0  0  0  0  0  0  0  0  0  0  0  0
   -6.7727   -0.4471   -0.3941 C   0  0  0  0  0  0  0  0  0  0  0  0
   -3.1991    0.1605    0.1704 C   0  0  0  0  0  0  0  0  0  0  0  0
   -1.7026    0.2448    0.4788 C   0  0  0  0  0  0  0  0  0  0  0  0
   -0.7217   -0.6928   -1.7640 C   0  0  0  0  0  0  0  0  0  0  0  0
    3.3806    1.0291   -0.9706 C   0  0  0  0  0  0  0  0  0  0  0  0
    4.3075    0.2327   -0.0500 C   0  0  0  0  0  0  0  0  0  0  0  0
    6.6515    0.8814   -1.0294 C   0  0  0  0  0  0  0  0  0  0  0  0
    9.0030    0.1027    2.4449 H   0  0  0  0  0  0  0  0  0  0  0  0
    9.0013   -1.4153    1.5404 H   0  0  0  0  0  0  0  0  0  0  0  0
   10.4531   -0.4038    1.5574 H   0  0  0  0  0  0  0  0  0  0  0  0
    9.2328   -0.1733   -0.6035 H   0  0  0  0  0  0  0  0  0  0  0  0
   10.5063    1.7792    0.2789 H   0  0  0  0  0  0  0  0  0  0  0  0
    9.0578    2.3582    1.1236 H   0  0  0  0  0  0  0  0  0  0  0  0
    9.0923    2.3109   -0.6424 H   0  0  0  0  0  0  0  0  0  0  0  0
    6.9443    0.9149    1.1591 H   0  0  0  0  0  0  0  0  0  0  0  0
    6.2202   -1.4412    0.9592 H   0  0  0  0  0  0  0  0  0  0  0  0
    7.2033   -1.7063   -0.4939 H   0  0  0  0  0  0  0  0  0  0  0  0
    4.6827   -1.9291   -1.8221 H   0  0  0  0  0  0  0  0  0  0  0  0
    6.0660   -1.2523   -2.6848 H   0  0  0  0  0  0  0  0  0  0  0  0
    3.9403   -0.6991   -3.8488 H   0  0  0  0  0  0  0  0  0  0  0  0
    4.7255    0.7771   -3.2826 H   0  0  0  0  0  0  0  0  0  0  0  0
    0.5429    1.0350   -1.3430 H   0  0  0  0  0  0  0  0  0  0  0  0
    1.1154   -1.7601   -0.0874 H   0  0  0  0  0  0  0  0  0  0  0  0
    0.9577   -0.2202    0.7771 H   0  0  0  0  0  0  0  0  0  0  0  0
   -1.0071   -3.0619   -0.3614 H   0  0  0  0  0  0  0  0  0  0  0  0
   -1.3149   -2.4152    1.2434 H   0  0  0  0  0  0  0  0  0  0  0  0
   -3.4263   -3.2684    0.2191 H   0  0  0  0  0  0  0  0  0  0  0  0
   -3.1710   -2.2652   -1.1921 H   0  0  0  0  0  0  0  0  0  0  0  0
   -3.0692   -2.7304    2.5829 H   0  0  0  0  0  0  0  0  0  0  0  0
   -4.2785   -2.9598    4.6870 H   0  0  0  0  0  0  0  0  0  0  0  0
   -6.3748   -1.6907    5.0780 H   0  0  0  0  0  0  0  0  0  0  0  0
   -7.2688   -0.2274    3.3106 H   0  0  0  0  0  0  0  0  0  0  0  0
   -6.1696    2.0209    1.9843 H   0  0  0  0  0  0  0  0  0  0  0  0
   -6.4267    3.0536   -0.3927 H   0  0  0  0  0  0  0  0  0  0  0  0
   -7.8685    3.1221    0.5920 H   0  0  0  0  0  0  0  0  0  0  0  0
   -9.7970    0.8163   -1.3724 H   0  0  0  0  0  0  0  0  0  0  0  0
   -9.8632    2.2131   -0.3129 H   0  0  0  0  0  0  0  0  0  0  0  0
   -9.2609    0.6693    0.3132 H   0  0  0  0  0  0  0  0  0  0  0  0
   -7.6815    0.0717   -2.2937 H   0  0  0  0  0  0  0  0  0  0  0  0
   -6.2224    0.9610   -1.9393 H   0  0  0  0  0  0  0  0  0  0  0  0
   -7.6411   -1.0802   -0.1719 H   0  0  0  0  0  0  0  0  0  0  0  0
   -5.9997   -1.1056   -0.8021 H   0  0  0  0  0  0  0  0  0  0  0  0
   -3.3755    0.3517   -0.8947 H   0  0  0  0  0  0  0  0  0  0  0  0
   -3.7037    0.9603    0.7215 H   0  0  0  0  0  0  0  0  0  0  0  0
   -1.5473    0.1636    1.5624 H   0  0  0  0  0  0  0  0  0  0  0  0
   -1.3267    1.2292    0.1770 H   0  0  0  0  0  0  0  0  0  0  0  0
   -0.6658   -1.6316   -2.3283 H   0  0  0  0  0  0  0  0  0  0  0  0
   -1.4256   -0.0318   -2.2783 H   0  0  0  0  0  0  0  0  0  0  0  0
    3.8684    1.9505   -1.3087 H   0  0  0  0  0  0  0  0  0  0  0  0
    2.4829    1.3230   -0.4253 H   0  0  0  0  0  0  0  0  0  0  0  0
    4.5718    0.8444    0.8197 H   0  0  0  0  0  0  0  0  0  0  0  0
    3.7774   -0.6514    0.3265 H   0  0  0  0  0  0  0  0  0  0  0  0
    7.2628    0.7449   -1.9301 H   0  0  0  0  0  0  0  0  0  0  0  0
    6.3077    1.9196   -1.0057 H   0  0  0  0  0  0  0  0  0  0  0  0
  1  2  1  0
  2  3  1  0
  2  4  1  0
  4  5  1  0
  5  6  1  0
  6  7  1  0
  7  8  1  0
  8  9  1  0
  9 10  1  0
 10 11  2  0
 10 12  1  0
 12 13  1  0
 13 14  1  0
 14 15  1  0
 15 16  1  0
 16 17  1  0
 17 18  1  0
 18 19  2  0
 19 20  1  0
 20 21  2  0
 21 22  1  0
 22 23  2  0
 23 24  1  0
 24 25  2  0
 25 26  1  0
 26 27  1  0
 27 28  1  0
 27 29  1  0
 29 30  1  0
 17 31  1  0
 31 32  1  0
 14 33  1  0
  9 34  1  0
 34 35  1  0
  6 36  1  0
 36  4  1  0
 35  6  1  0
 33 12  1  0
 32 14  1  0
 23 18  1  0
 30 24  1  0
  1 37  1  0
  1 38  1  0
  1 39  1  0
  2 40  1  0
  3 41  1  0
  3 42  1  0
  3 43  1  0
  4 44  1  0
  5 45  1  0
  5 46  1  0
  7 47  1  0
  7 48  1  0
  8 49  1  0
  8 50  1  0
 12 51  1  0
 13 52  1  0
 13 53  1  0
 15 54  1  0
 15 55  1  0
 16 56  1  0
 16 57  1  0
 19 58  1  0
 20 59  1  0
 21 60  1  0
 22 61  1  0
 25 62  1  0
 26 63  1  0
 26 64  1  0
 28 65  1  0
 28 66  1  0
 28 67  1  0
 29 68  1  0
 29 69  1  0
 30 70  1  0
 30 71  1  0
 31 72  1  0
 31 73  1  0
 32 74  1  0
 32 75  1  0
 33 76  1  0
 33 77  1  0
 34 78  1  0
 34 79  1  0
 35 80  1  0
 35 81  1  0
 36 82  1  0
 36 83  1  0
M  END
$$$$

     RDKit          3D

 83 88  0  0  0  0  0  0  0  0999 V2000
    8.5224    0.6765   -2.3229 C   0  0  0  0  0  0  0  0  0  0  0  0
    8.9299    0.0901   -0.9736 C   0  0  0  0  0  0  0  0  0  0  0  0
    9.8077    1.0862   -0.2133 C   0  0  0  0  0  0  0  0  0  0  0  0
    7.7389   -0.3092   -0.0936 C   0  0  0  0  0  0  0  0  0  0  0  0
    6.6494   -1.2633   -0.6524 C   0  0  0  0  0  0  0  0  0  0  0  0
    5.5948   -0.4889    0.2022 C   0  0  0  0  0  0  0  0  0  0  0  0
    5.3129   -1.0789    1.5982 C   0  0  0  0  0  0  0  0  0  0  0  0
    4.3808   -2.2858    1.4758 C   0  0  0  0  0  0  0  0  0  0  0  0
    3.1650   -1.9066    0.7591 N   0  0  0  0  0  0  0  0  0  0  0  0
    1.9734   -1.7517    1.4756 C   0  0  0  0  0  0  0  0  0  0  0  0
    1.9190   -2.0347    2.6795 O   0  0  0  0  0  0  0  0  0  0  0  0
    0.7334   -1.2257    0.7023 C   0  0  0  0  0  0  0  0  0  0  0  0
    0.6178    0.3092    0.4995 C   0  0  0  0  0  0  0  0  0  0  0  0
   -0.9137    0.1995    0.7434 C   0  0  0  0  0  0  0  0  0  0  0  0
   -1.7347    0.0872   -0.5496 C   0  0  0  0  0  0  0  0  0  0  0  0
   -3.2103   -0.1533   -0.2229 C   0  0  0  0  0  0  0  0  0  0  0  0
   -3.7115    0.8801    0.6914 N   0  0  0  0  0  0  0  0  0  0  0  0
   -4.4944    1.9002    0.1458 C   0  0  0  0  0  0  0  0  0  0  0  0
   -4.0726    3.2419    0.2057 C   0  0  0  0  0  0  0  0  0  0  0  0
   -4.8135    4.2812   -0.3657 C   0  0  0  0  0  0  0  0  0  0  0  0
   -6.0111    4.0075   -1.0096 C   0  0  0  0  0  0  0  0  0  0  0  0
   -6.4721    2.6956   -1.0687 C   0  0  0  0  0  0  0  0  0  0  0  0
   -5.7372    1.6383   -0.4940 C   0  0  0  0  0  0  0  0  0  0  0  0
   -6.3704    0.2995   -0.5290 C   0  0  0  0  0  0  0  0  0  0  0  0
   -6.6116   -0.3265   -1.6967 C   0  0  0  0  0  0  0  0  0  0  0  0
   -7.2559   -1.6819   -1.7862 C   0  0  0  0  0  0  0  0  0  0  0  0
   -7.9104   -2.1514   -0.5561 N   0  0  0  0  0  0  0  0  0  0  0  0
   -9.2583   -1.6007   -0.4212 C   0  0  0  0  0  0  0  0  0  0  0  0
   -7.0727   -1.8417    0.6158 C   0  0  0  0  0  0  0  0  0  0  0  0
   -6.7325   -0.3491    0.7840 C   0  0  0  0  0  0  0  0  0  0  0  0
   -2.9441    1.0842    1.9227 C   0  0  0  0  0  0  0  0  0  0  0  0
   -1.4625    1.3216    1.6305 C   0  0  0  0  0  0  0  0  0  0  0  0
   -0.6133   -1.1421    1.4758 C   0  0  0  0  0  0  0  0  0  0  0  0
    3.3967   -1.4011   -0.5919 C   0  0  0  0  0  0  0  0  0  0  0  0
    4.2853   -0.1585   -0.5335 C   0  0  0  0  0  0  0  0  0  0  0  0
    6.6020    0.7012    0.2175 C   0  0  0  0  0  0  0  0  0  0  0  0
    9.4102    0.9263   -2.9146 H   0  0  0  0  0  0  0  0  0  0  0  0
    7.9339    1.5922   -2.2119 H   0  0  0  0  0  0  0  0  0  0  0  0
    7.9330   -0.0335   -2.9095 H   0  0  0  0  0  0  0  0  0  0  0  0
    9.5299   -0.8085   -1.1656 H   0  0  0  0  0  0  0  0  0  0  0  0
    9.2624    2.0100    0.0088 H   0  0  0  0  0  0  0  0  0  0  0  0
   10.1432    0.6629    0.7396 H   0  0  0  0  0  0  0  0  0  0  0  0
   10.6970    1.3476   -0.7962 H   0  0  0  0  0  0  0  0  0  0  0  0
    8.1471   -0.7272    0.8418 H   0  0  0  0  0  0  0  0  0  0  0  0
    6.7948   -2.3189   -0.4039 H   0  0  0  0  0  0  0  0  0  0  0  0
    6.4789   -1.1942   -1.7317 H   0  0  0  0  0  0  0  0  0  0  0  0
    4.8388   -0.3146    2.2272 H   0  0  0  0  0  0  0  0  0  0  0  0
    6.2382   -1.3815    2.1008 H   0  0  0  0  0  0  0  0  0  0  0  0
    4.8589   -3.0911    0.9066 H   0  0  0  0  0  0  0  0  0  0  0  0
    4.1523   -2.6819    2.4700 H   0  0  0  0  0  0  0  0  0  0  0  0
    0.5829   -1.7869   -0.2315 H   0  0  0  0  0  0  0  0  0  0  0  0
    1.1592    0.8913    1.2560 H   0  0  0  0  0  0  0  0  0  0  0  0
    0.9170    0.6759   -0.4872 H   0  0  0  0  0  0  0  0  0  0  0  0
   -1.6349    1.0138   -1.1296 H   0  0  0  0  0  0  0  0  0  0  0  0
   -1.3686   -0.7267   -1.1859 H   0  0  0  0  0  0  0  0  0  0  0  0
   -3.7634   -0.1945   -1.1664 H   0  0  0  0  0  0  0  0  0  0  0  0
   -3.3350   -1.1304    0.2585 H   0  0  0  0  0  0  0  0  0  0  0  0
   -3.1346    3.5027    0.6841 H   0  0  0  0  0  0  0  0  0  0  0  0
   -4.4470    5.3025   -0.3062 H   0  0  0  0  0  0  0  0  0  0  0  0
   -6.5927    4.8111   -1.4522 H   0  0  0  0  0  0  0  0  0  0  0  0
   -7.4289    2.4969   -1.5472 H   0  0  0  0  0  0  0  0  0  0  0  0
   -6.3187    0.1305   -2.6380 H   0  0  0  0  0  0  0  0  0  0  0  0
   -6.4760   -2.4040   -2.0597 H   0  0  0  0  0  0  0  0  0  0  0  0
   -7.9691   -1.6897   -2.6198 H   0  0  0  0  0  0  0  0  0  0  0  0
   -9.7320   -1.9677    0.4962 H   0  0  0  0  0  0  0  0  0  0  0  0
   -9.2821   -0.5059   -0.4044 H   0  0  0  0  0  0  0  0  0  0  0  0
   -9.8896   -1.9387   -1.2509 H   0  0  0  0  0  0  0  0  0  0  0  0
   -6.1372   -2.4116    0.5284 H   0  0  0  0  0  0  0  0  0  0  0  0
   -7.5526   -2.2132    1.5299 H   0  0  0  0  0  0  0  0  0  0  0  0
   -5.9225   -0.2684    1.5156 H   0  0  0  0  0  0  0  0  0  0  0  0
   -7.5950    0.1797    1.2091 H   0  0  0  0  0  0  0  0  0  0  0  0
   -3.3526    1.9029    2.5272 H   0  0  0  0  0  0  0  0  0  0  0  0
   -3.0487    0.1794    2.5347 H   0  0  0  0  0  0  0  0  0  0  0  0
   -0.9121    1.3796    2.5772 H   0  0  0  0  0  0  0  0  0  0  0  0
   -1.3205    2.2844    1.1270 H   0  0  0  0  0  0  0  0  0  0  0  0
   -1.3056   -1.9666    1.2814 H   0  0  0  0  0  0  0  0  0  0  0  0
   -0.5037   -1.0420    2.5625 H   0  0  0  0  0  0  0  0  0  0  0  0
    3.8868   -2.2001   -1.1606 H   0  0  0  0  0  0  0  0  0  0  0  0
    2.4639   -1.1652   -1.1054 H   0  0  0  0  0  0  0  0  0  0  0  0
    4.4835    0.2004   -1.5501 H   0  0  0  0  0  0  0  0  0  0  0  0
    3.7603    0.6460   -0.0031 H   0  0  0  0  0  0  0  0  0  0  0  0
    6.7038    1.2322    1.1692 H   0  0  0  0  0  0  0  0  0  0  0  0
    6.4207    1.4459   -0.5649 H   0  0  0  0  0  0  0  0  0  0  0  0
  1  2  1  0
  2  3  1  0
  2  4  1  0
  4  5  1  0
  5  6  1  0
  6  7  1  0
  7  8  1  0
  8  9  1  0
  9 10  1  0
 10 11  2  0
 10 12  1  0
 12 13  1  0
 13 14  1  0
 14 15  1  0
 15 16  1  0
 16 17  1  0
 17 18  1  0
 18 19  2  0
 19 20  1  0
 20 21  2  0
 21 22  1  0
 22 23  2  0
 23 24  1  0
 24 25  2  0
 25 26  1  0
 26 27  1  0
 27 28  1  0
 27 29  1  0
 29 30  1  0
 17 31  1  0
 31 32  1  0
 14 33  1  0
  9 34  1  0
 34 35  1  0
  6 36  1  0
 36  4  1  0
 35  6  1  0
 33 12  1  0
 32 14  1  0
 23 18  1  0
 30 24  1  0
  1 37  1  0
  1 38  1  0
  1 39  1  0
  2 40  1  0
  3 41  1  0
  3 42  1  0
  3 43  1  0
  4 44  1  0
  5 45  1  0
  5 46  1  0
  7 47  1  0
  7 48  1  0
  8 49  1  0
  8 50  1  0
 12 51  1  0
 13 52  1  0
 13 53  1  0
 15 54  1  0
 15 55  1  0
 16 56  1  0
 16 57  1  0
 19 58  1  0
 20 59  1  0
 21 60  1  0
 22 61  1  0
 25 62  1  0
 26 63  1  0
 26 64  1  0
 28 65  1  0
 28 66  1  0
 28 67  1  0
 29 68  1  0
 29 69  1  0
 30 70  1  0
 30 71  1  0
 31 72  1  0
 31 73  1  0
 32 74  1  0
 32 75  1  0
 33 76  1  0
 33 77  1  0
 34 78  1  0
 34 79  1  0
 35 80  1  0
 35 81  1  0
 36 82  1  0
 36 83  1  0
M  END
$$$$
