
     RDKit          3D

 88 94  0  0  0  0  0  0  0  0999 V2000
   -4.8377    1.1043    5.8553 C   0  0  0  0  0  0  0  0  0  0  0  0
   -4.8382    0.7016    4.4515 N   0  0  0  0  0  0  0  0  0  0  0  0
   -6.0534    1.1826    3.7763 C   0  0  0  0  0  0  0  0  0  0  0  0
   -6.2335    0.6147    2.3967 C   0  0  0  0  0  0  0  0  0  0  0  0
   -5.5357   -0.4414    1.9421 C   0  0  0  0  0  0  0  0  0  0  0  0
   -5.7494   -0.9633    0.5782 C   0  0  0  0  0  0  0  0  0  0  0  0
   -6.3905   -2.2108    0.4595 C   0  0  0  0  0  0  0  0  0  0  0  0
   -6.6513   -2.7637   -0.7895 C   0  0  0  0  0  0  0  0  0  0  0  0
   -6.2806   -2.0708   -1.9314 C   0  0  0  0  0  0  0  0  0  0  0  0
   -5.6475   -0.8292   -1.8206 C   0  0  0  0  0  0  0  0  0  0  0  0
   -5.3483   -0.2308   -0.5744 C   0  0  0  0  0  0  0  0  0  0  0  0
   -4.6105    1.1991   -0.4737 C   0  0  0  0  0  0  0  0  0  0  0  0
   -3.1818    1.2375    0.1413 C   0  0  0  0  0  0  0  0  0  0  0  0
   -2.5845    1.4163   -1.2836 C   0  0  0  0  0  0  0  0  0  0  0  0
   -2.1420    0.1041   -1.9618 C   0  0  0  0  0  0  0  0  0  0  0  0
   -0.6213   -0.0188   -1.9771 C   0  0  0  0  0  0  0  0  0  0  0  0
   -0.0086    1.0996   -2.6960 N   0  0  0  0  0  0  0  0  0  0  0  0
    1.1634    1.0092   -3.4536 C   0  0  0  0  0  0  0  0  0  0  0  0
    1.5688    1.9862   -4.0975 O   0  0  0  0  0  0  0  0  0  0  0  0
    1.9173   -0.3522   -3.4513 C   0  0  0  0  0  0  0  0  0  0  0  0
    2.5872   -0.8196   -2.1323 C   0  0  0  0  0  0  0  0  0  0  0  0
    3.9604   -0.3211   -2.6752 C   0  0  0  0  0  0  0  0  0  0  0  0
    5.1154   -1.2955   -2.4529 C   0  0  0  0  0  0  0  0  0  0  0  0
    5.4795   -1.3463   -0.9612 C   0  0  0  0  0  0  0  0  0  0  0  0
    5.2832   -0.0710   -0.2592 N   0  0  0  0  0  0  0  0  0  0  0  0
    6.0217    0.0653    1.0109 C   0  0  0  0  0  0  0  0  0  0  0  0
    5.7435   -1.0796    1.9918 C   0  0  0  0  0  0  0  0  0  0  0  0
    6.3820   -0.7856    3.3498 C   0  0  0  0  0  0  0  0  0  0  0  0
    7.5200    0.0754    3.2717 O   0  0  0  0  0  0  0  0  0  0  0  0
    8.3036   -0.1580    2.1083 C   0  0  0  0  0  0  0  0  0  0  0  0
    7.5421    0.2718    0.8576 C   0  0  0  0  0  0  0  0  0  0  0  0
    5.4353    1.0835   -1.1447 C   0  0  0  0  0  0  0  0  0  0  0  0
    4.3461    1.1012   -2.2268 C   0  0  0  0  0  0  0  0  0  0  0  0
    3.3301   -0.3932   -4.0946 C   0  0  0  0  0  0  0  0  0  0  0  0
   -0.6865    2.3933   -2.6121 C   0  0  0  0  0  0  0  0  0  0  0  0
   -1.5055    2.5097   -1.3323 C   0  0  0  0  0  0  0  0  0  0  0  0
   -4.0011    1.8898   -1.7247 C   0  0  0  0  0  0  0  0  0  0  0  0
   -4.5651   -1.1662    2.8422 C   0  0  0  0  0  0  0  0  0  0  0  0
   -4.7179   -0.7568    4.3188 C   0  0  0  0  0  0  0  0  0  0  0  0
   -3.9032    0.8022    6.3414 H   0  0  0  0  0  0  0  0  0  0  0  0
   -5.6728    0.6658    6.4137 H   0  0  0  0  0  0  0  0  0  0  0  0
   -4.8985    2.1948    5.9431 H   0  0  0  0  0  0  0  0  0  0  0  0
   -5.9962    2.2742    3.6899 H   0  0  0  0  0  0  0  0  0  0  0  0
   -6.9528    0.9442    4.3588 H   0  0  0  0  0  0  0  0  0  0  0  0
   -6.9723    1.1024    1.7663 H   0  0  0  0  0  0  0  0  0  0  0  0
   -6.7034   -2.7521    1.3496 H   0  0  0  0  0  0  0  0  0  0  0  0
   -7.1496   -3.7256   -0.8680 H   0  0  0  0  0  0  0  0  0  0  0  0
   -6.4861   -2.4884   -2.9138 H   0  0  0  0  0  0  0  0  0  0  0  0
   -5.3827   -0.3197   -2.7434 H   0  0  0  0  0  0  0  0  0  0  0  0
   -5.2877    1.9029    0.0322 H   0  0  0  0  0  0  0  0  0  0  0  0
   -2.8487    0.3414    0.6716 H   0  0  0  0  0  0  0  0  0  0  0  0
   -3.0337    2.0950    0.8101 H   0  0  0  0  0  0  0  0  0  0  0  0
   -2.5714   -0.7702   -1.4609 H   0  0  0  0  0  0  0  0  0  0  0  0
   -2.5001    0.0847   -2.9994 H   0  0  0  0  0  0  0  0  0  0  0  0
   -0.3400   -0.9696   -2.4352 H   0  0  0  0  0  0  0  0  0  0  0  0
   -0.2238   -0.0074   -0.9559 H   0  0  0  0  0  0  0  0  0  0  0  0
    1.2823   -1.1287   -3.9008 H   0  0  0  0  0  0  0  0  0  0  0  0
    2.5196   -1.9049   -1.9856 H   0  0  0  0  0  0  0  0  0  0  0  0
    2.2401   -0.3366   -1.2139 H   0  0  0  0  0  0  0  0  0  0  0  0
    4.8634   -2.3049   -2.7999 H   0  0  0  0  0  0  0  0  0  0  0  0
    5.9869   -0.9711   -3.0364 H   0  0  0  0  0  0  0  0  0  0  0  0
    6.5101   -1.7116   -0.8829 H   0  0  0  0  0  0  0  0  0  0  0  0
    4.8410   -2.0964   -0.4784 H   0  0  0  0  0  0  0  0  0  0  0  0
    5.6236    0.9692    1.4957 H   0  0  0  0  0  0  0  0  0  0  0  0
    4.6688   -1.2545    2.1207 H   0  0  0  0  0  0  0  0  0  0  0  0
    6.1676   -2.0154    1.6058 H   0  0  0  0  0  0  0  0  0  0  0  0
    6.6752   -1.7183    3.8444 H   0  0  0  0  0  0  0  0  0  0  0  0
    5.6558   -0.2901    4.0029 H   0  0  0  0  0  0  0  0  0  0  0  0
    8.5799   -1.2184    2.0606 H   0  0  0  0  0  0  0  0  0  0  0  0
    9.2329    0.4141    2.1965 H   0  0  0  0  0  0  0  0  0  0  0  0
    7.9599   -0.2616   -0.0031 H   0  0  0  0  0  0  0  0  0  0  0  0
    7.7272    1.3376    0.6716 H   0  0  0  0  0  0  0  0  0  0  0  0
    6.4259    1.0754   -1.6182 H   0  0  0  0  0  0  0  0  0  0  0  0
    5.3651    2.0244   -0.5848 H   0  0  0  0  0  0  0  0  0  0  0  0
    3.4674    1.6364   -1.8464 H   0  0  0  0  0  0  0  0  0  0  0  0
    4.7230    1.6809   -3.0786 H   0  0  0  0  0  0  0  0  0  0  0  0
    3.5792    0.4276   -4.7740 H   0  0  0  0  0  0  0  0  0  0  0  0
    3.5245   -1.3320   -4.6293 H   0  0  0  0  0  0  0  0  0  0  0  0
    0.0508    3.2022   -2.6558 H   0  0  0  0  0  0  0  0  0  0  0  0
   -1.3303    2.4800   -3.4953 H   0  0  0  0  0  0  0  0  0  0  0  0
   -0.8321    2.4024   -0.4714 H   0  0  0  0  0  0  0  0  0  0  0  0
   -1.9486    3.5094   -1.2592 H   0  0  0  0  0  0  0  0  0  0  0  0
   -4.1396    2.9794   -1.7024 H   0  0  0  0  0  0  0  0  0  0  0  0
   -4.3363    1.5563   -2.7096 H   0  0  0  0  0  0  0  0  0  0  0  0
   -4.6983   -2.2520    2.7730 H   0  0  0  0  0  0  0  0  0  0  0  0
   -3.5432   -0.9457    2.5111 H   0  0  0  0  0  0  0  0  0  0  0  0
   -5.5920   -1.2596    4.7554 H   0  0  0  0  0  0  0  0  0  0  0  0
   -3.8355   -1.1162    4.8629 H   0  0  0  0  0  0  0  0  0  0  0  0
  1  2  1  0
  2  3  1  0
  3  4  1  0
  4  5  2  0
  5  6  1  0
  6  7  2  0
  7  8  1  0
  8  9  2  0
  9 10  1  0
 10 11  2  0
 11 12  1  0
 12 13  1  0
 13 14  1  0
 14 15  1  0
 15 16  1  0
 16 17  1  0
 17 18  1  0
 18 19  2  0
 18 20  1  0
 20 21  1  0
 21 22  1  0
 22 23  1  0
 23 24  1  0
 24 25  1  0
 25 26  1  0
 26 27  1  0
 27 28  1  0
 28 29  1  0
 29 30  1  0
 30 31  1  0
 25 32  1  0
 32 33  1  0
 22 34  1  0
 17 35  1  0
 35 36  1  0
 14 37  1  0
  5 38  1  0
 38 39  1  0
 39  2  1  0
 11  6  1  0
 37 12  1  0
 36 14  1  0
 34 20  1  0
 33 22  1  0
 31 26  1  0
  1 40  1  0
  1 41  1  0
  1 42  1  0
  3 43  1  0
  3 44  1  0
  4 45  1  0
  7 46  1  0
  8 47  1  0
  9 48  1  0
 10 49  1  0
 12 50  1  0
 13 51  1  0
 13 52  1  0
 15 53  1  0
 15 54  1  0
 16 55  1  0
 16 56  1  0
 20 57  1  0
 21 58  1  0
 21 59  1  0
 23 60  1  0
 23 61  1  0
 24 62  1  0
 24 63  1  0
 26 64  1  0
 27 65  1  0
 27 66  1  0
 28 67  1  0
 28 68  1  0
 30 69  1  0
 30 70  1  0
 31 71  1  0
 31 72  1  0
 32 73  1  0
 32 74  1  0
 33 75  1  0
 33 76  1  0
 34 77  1  0
 34 78  1  0
 35 79  1  0
 35 80  1  0
 36 81  1  0
 36 82  1  0
 37 83  1  0
 37 84  1  0
 38 85  1  0
 38 86  1  0
 39 87  1  0
 39 88  1  0
M  END
$$$$

     RDKit          3D

 88 94  0  0  0  0  0  0  0  0999 V2000
   -6.9251    4.0737   -1.4120 C   0  0  0  0  0  0  0  0  0  0  0  0
   -7.2234    2.6785   -1.1008 N   0  0  0  0  0  0  0  0  0  0  0  0
   -6.7331    1.7939   -2.1692 C   0  0  0  0  0  0  0  0  0  0  0  0
   -6.7833    0.3350   -1.8116 C   0  0  0  0  0  0  0  0  0  0  0  0
   -6.9493   -0.1024   -0.5510 C   0  0  0  0  0  0  0  0  0  0  0  0
   -7.0146   -1.5416   -0.2436 C   0  0  0  0  0  0  0  0  0  0  0  0
   -8.2634   -2.0608    0.1435 C   0  0  0  0  0  0  0  0  0  0  0  0
   -8.4172   -3.4150    0.4218 C   0  0  0  0  0  0  0  0  0  0  0  0
   -7.3257   -4.2630    0.3082 C   0  0  0  0  0  0  0  0  0  0  0  0
   -6.0825   -3.7516   -0.0745 C   0  0  0  0  0  0  0  0  0  0  0  0
   -5.8730   -2.3800   -0.3495 C   0  0  0  0  0  0  0  0  0  0  0  0
   -4.4277   -1.8393   -0.7730 C   0  0  0  0  0  0  0  0  0  0  0  0
   -3.7907   -0.6787    0.0475 C   0  0  0  0  0  0  0  0  0  0  0  0
   -2.3953   -1.3261   -0.1826 C   0  0  0  0  0  0  0  0  0  0  0  0
   -1.6443   -0.7671   -1.3978 C   0  0  0  0  0  0  0  0  0  0  0  0
   -0.3487   -1.5429   -1.6213 C   0  0  0  0  0  0  0  0  0  0  0  0
    0.4730   -1.6149   -0.4124 N   0  0  0  0  0  0  0  0  0  0  0  0
    1.8628   -1.7341   -0.5849 C   0  0  0  0  0  0  0  0  0  0  0  0
    2.3686   -1.6393   -1.7110 O   0  0  0  0  0  0  0  0  0  0  0  0
    2.7266   -1.9786    0.6864 C   0  0  0  0  0  0  0  0  0  0  0  0
    4.2702   -1.9635    0.5274 C   0  0  0  0  0  0  0  0  0  0  0  0
    4.2996   -0.5120    1.0926 C   0  0  0  0  0  0  0  0  0  0  0  0
    5.3592   -0.2682    2.1765 C   0  0  0  0  0  0  0  0  0  0  0  0
    6.5781    0.4258    1.5682 C   0  0  0  0  0  0  0  0  0  0  0  0
    6.2340    1.7695    1.0898 N   0  0  0  0  0  0  0  0  0  0  0  0
    7.2619    2.4367    0.2685 C   0  0  0  0  0  0  0  0  0  0  0  0
    8.6277    2.5141    0.9612 C   0  0  0  0  0  0  0  0  0  0  0  0
    9.5865    3.3889    0.1523 C   0  0  0  0  0  0  0  0  0  0  0  0
    9.2637    3.4513   -1.2385 O   0  0  0  0  0  0  0  0  0  0  0  0
    8.7971    2.2073   -1.7455 C   0  0  0  0  0  0  0  0  0  0  0  0
    7.4330    1.8638   -1.1524 C   0  0  0  0  0  0  0  0  0  0  0  0
    4.8719    1.8831    0.5475 C   0  0  0  0  0  0  0  0  0  0  0  0
    4.3263    0.5668   -0.0064 C   0  0  0  0  0  0  0  0  0  0  0  0
    2.8915   -0.8035    1.6857 C   0  0  0  0  0  0  0  0  0  0  0  0
   -0.2115   -2.0598    0.8021 C   0  0  0  0  0  0  0  0  0  0  0  0
   -1.4973   -1.2783    1.0556 C   0  0  0  0  0  0  0  0  0  0  0  0
   -3.1593   -2.6660   -0.4035 C   0  0  0  0  0  0  0  0  0  0  0  0
   -7.0978    0.8706    0.5901 C   0  0  0  0  0  0  0  0  0  0  0  0
   -6.6560    2.2921    0.1985 C   0  0  0  0  0  0  0  0  0  0  0  0
   -7.3792    4.3608   -2.3670 H   0  0  0  0  0  0  0  0  0  0  0  0
   -7.3505    4.7364   -0.6503 H   0  0  0  0  0  0  0  0  0  0  0  0
   -5.8475    4.2647   -1.4707 H   0  0  0  0  0  0  0  0  0  0  0  0
   -5.6974    2.0363   -2.4411 H   0  0  0  0  0  0  0  0  0  0  0  0
   -7.3524    1.9477   -3.0609 H   0  0  0  0  0  0  0  0  0  0  0  0
   -6.6774   -0.3694   -2.6322 H   0  0  0  0  0  0  0  0  0  0  0  0
   -9.1293   -1.4053    0.2130 H   0  0  0  0  0  0  0  0  0  0  0  0
   -9.3879   -3.8051    0.7144 H   0  0  0  0  0  0  0  0  0  0  0  0
   -7.4366   -5.3248    0.5122 H   0  0  0  0  0  0  0  0  0  0  0  0
   -5.2510   -4.4482   -0.1636 H   0  0  0  0  0  0  0  0  0  0  0  0
   -4.4311   -1.6112   -1.8504 H   0  0  0  0  0  0  0  0  0  0  0  0
   -4.1087   -0.6543    1.0975 H   0  0  0  0  0  0  0  0  0  0  0  0
   -3.9193    0.3234   -0.3722 H   0  0  0  0  0  0  0  0  0  0  0  0
   -2.2549   -0.8103   -2.3066 H   0  0  0  0  0  0  0  0  0  0  0  0
   -1.4063    0.2904   -1.2243 H   0  0  0  0  0  0  0  0  0  0  0  0
    0.2098   -1.0714   -2.4370 H   0  0  0  0  0  0  0  0  0  0  0  0
   -0.5603   -2.5745   -1.9267 H   0  0  0  0  0  0  0  0  0  0  0  0
    2.4134   -2.9109    1.1777 H   0  0  0  0  0  0  0  0  0  0  0  0
    4.6540   -2.0926   -0.4893 H   0  0  0  0  0  0  0  0  0  0  0  0
    4.7652   -2.7119    1.1594 H   0  0  0  0  0  0  0  0  0  0  0  0
    5.6634   -1.2080    2.6520 H   0  0  0  0  0  0  0  0  0  0  0  0
    4.9470    0.3612    2.9768 H   0  0  0  0  0  0  0  0  0  0  0  0
    7.3493    0.5022    2.3428 H   0  0  0  0  0  0  0  0  0  0  0  0
    6.9792   -0.2012    0.7638 H   0  0  0  0  0  0  0  0  0  0  0  0
    6.9315    3.4804    0.1581 H   0  0  0  0  0  0  0  0  0  0  0  0
    8.5466    2.9054    1.9822 H   0  0  0  0  0  0  0  0  0  0  0  0
    9.0630    1.5099    1.0453 H   0  0  0  0  0  0  0  0  0  0  0  0
    9.5594    4.4171    0.5285 H   0  0  0  0  0  0  0  0  0  0  0  0
   10.6168    3.0329    0.2635 H   0  0  0  0  0  0  0  0  0  0  0  0
    8.7234    2.2825   -2.8352 H   0  0  0  0  0  0  0  0  0  0  0  0
    9.5336    1.4249   -1.5247 H   0  0  0  0  0  0  0  0  0  0  0  0
    6.6464    2.2810   -1.7937 H   0  0  0  0  0  0  0  0  0  0  0  0
    7.3095    0.7766   -1.1899 H   0  0  0  0  0  0  0  0  0  0  0  0
    4.8027    2.6633   -0.2200 H   0  0  0  0  0  0  0  0  0  0  0  0
    4.2189    2.2189    1.3636 H   0  0  0  0  0  0  0  0  0  0  0  0
    4.9554    0.2397   -0.8430 H   0  0  0  0  0  0  0  0  0  0  0  0
    3.3259    0.7370   -0.4200 H   0  0  0  0  0  0  0  0  0  0  0  0
    2.1634    0.0091    1.5967 H   0  0  0  0  0  0  0  0  0  0  0  0
    2.8956   -1.1363    2.7314 H   0  0  0  0  0  0  0  0  0  0  0  0
    0.4342   -1.9619    1.6768 H   0  0  0  0  0  0  0  0  0  0  0  0
   -0.4251   -3.1279    0.6747 H   0  0  0  0  0  0  0  0  0  0  0  0
   -2.0085   -1.6909    1.9334 H   0  0  0  0  0  0  0  0  0  0  0  0
   -1.2492   -0.2353    1.2907 H   0  0  0  0  0  0  0  0  0  0  0  0
   -2.7829   -3.3148   -1.1997 H   0  0  0  0  0  0  0  0  0  0  0  0
   -3.2595   -3.2672    0.5087 H   0  0  0  0  0  0  0  0  0  0  0  0
   -6.5004    0.5449    1.4502 H   0  0  0  0  0  0  0  0  0  0  0  0
   -8.1475    0.8925    0.9094 H   0  0  0  0  0  0  0  0  0  0  0  0
   -6.9980    2.9802    0.9815 H   0  0  0  0  0  0  0  0  0  0  0  0
   -5.5592    2.3496    0.1760 H   0  0  0  0  0  0  0  0  0  0  0  0
  1  2  1  0
  2  3  1  0
  3  4  1  0
  4  5  2  0
  5  6  1  0
  6  7  2  0
  7  8  1  0
  8  9  2  0
  9 10  1  0
 10 11  2  0
 11 12  1  0
 12 13  1  0
 13 14  1  0
 14 15  1  0
 15 16  1  0
 16 17  1  0
 17 18  1  0
 18 19  2  0
 18 20  1  0
 20 21  1  0
 21 22  1  0
 22 23  1  0
 23 24  1  0
 24 25  1  0
 25 26  1  0
 26 27  1  0
 27 28  1  0
 28 29  1  0
 29 30  1  0
 30 31  1  0
 25 32  1  0
 32 33  1  0
 22 34  1  0
 17 35  1  0
 35 36  1  0
 14 37  1  0
  5 38  1  0
 38 39  1  0
 39  2  1  0
 11  6  1  0
 37 12  1  0
 36 14  1  0
 34 20  1  0
 33 22  1  0
 31 26  1  0
  1 40  1  0
  1 41  1  0
  1 42  1  0
  3 43  1  0
  3 44  1  0
  4 45  1  0
  7 46  1  0
  8 47  1  0
  9 48  1  0
 10 49  1  0
 12 50  1  0
 13 51  1  0
 13 52  1  0
 15 53  1  0
 15 54  1  0
 16 55  1  0
 16 56  1  0
 20 57  1  0
 21 58  1  0
 21 59  1  0
 23 60  1  0
 23 61  1  0
 24 62  1  0
 24 63  1  0
 26 64  1  0
 27 65  1  0
 27 66  1  0
 28 67  1  0
 28 68  1  0
 30 69  1  0
 30 70  1  0
 31 71  1  0
 31 72  1  0
 32 73  1  0
 32 74  1  0
 33 75  1  0
 33 76  1  0
 34 77  1  0
 34 78  1  0
 35 79  1  0
 35 80  1  0
 36 81  1  0
 36 82  1  0
 37 83  1  0
 37 84  1  0
 38 85  1  0
 38 86  1  0
 39 87  1  0
 39 88  1  0
M  END
$$$$

     RDKit          3D

 88 94  0  0  0  0  0  0  0  0999 V2000
   -9.1713    0.6138   -3.1230 C   0  0  0  0  0  0  0  0  0  0  0  0
   -8.7211    0.6897   -1.7361 N   0  0  0  0  0  0  0  0  0  0  0  0
   -8.4807   -0.6564   -1.1946 C   0  0  0  0  0  0  0  0  0  0  0  0
   -7.7766   -0.6556    0.1334 C   0  0  0  0  0  0  0  0  0  0  0  0
   -7.1524    0.4268    0.6305 C   0  0  0  0  0  0  0  0  0  0  0  0
   -6.4871    0.3957    1.9465 C   0  0  0  0  0  0  0  0  0  0  0  0
   -7.0672    1.1636    2.9735 C   0  0  0  0  0  0  0  0  0  0  0  0
   -6.5178    1.1786    4.2506 C   0  0  0  0  0  0  0  0  0  0  0  0
   -5.3874    0.4209    4.5140 C   0  0  0  0  0  0  0  0  0  0  0  0
   -4.8061   -0.3437    3.4979 C   0  0  0  0  0  0  0  0  0  0  0  0
   -5.3166   -0.3796    2.1793 C   0  0  0  0  0  0  0  0  0  0  0  0
   -4.6166   -1.2587    1.0241 C   0  0  0  0  0  0  0  0  0  0  0  0
   -3.1912   -1.8511    1.2100 C   0  0  0  0  0  0  0  0  0  0  0  0
   -2.6107   -0.6953    0.3422 C   0  0  0  0  0  0  0  0  0  0  0  0
   -2.0945    0.4941    1.1766 C   0  0  0  0  0  0  0  0  0  0  0  0
   -1.0479    1.2910    0.4044 C   0  0  0  0  0  0  0  0  0  0  0  0
    0.0955    0.4512    0.0435 N   0  0  0  0  0  0  0  0  0  0  0  0
    1.3694    1.0271   -0.0020 C   0  0  0  0  0  0  0  0  0  0  0  0
    1.5192    2.2400    0.1931 O   0  0  0  0  0  0  0  0  0  0  0  0
    2.5675    0.0829   -0.2983 C   0  0  0  0  0  0  0  0  0  0  0  0
    3.9978    0.6668   -0.1195 C   0  0  0  0  0  0  0  0  0  0  0  0
    4.4522   -0.7148    0.4452 C   0  0  0  0  0  0  0  0  0  0  0  0
    5.3754   -0.6262    1.6544 C   0  0  0  0  0  0  0  0  0  0  0  0
    6.7532   -0.1059    1.2159 C   0  0  0  0  0  0  0  0  0  0  0  0
    7.1433   -0.4708   -0.1652 N   0  0  0  0  0  0  0  0  0  0  0  0
    8.6147   -0.3939   -0.3731 C   0  0  0  0  0  0  0  0  0  0  0  0
    9.2129    0.9693    0.0497 C   0  0  0  0  0  0  0  0  0  0  0  0
    8.7676    2.0837   -0.8911 C   0  0  0  0  0  0  0  0  0  0  0  0
    9.1667    1.7962   -2.2323 O   0  0  0  0  0  0  0  0  0  0  0  0
    8.5855    0.5814   -2.7091 C   0  0  0  0  0  0  0  0  0  0  0  0
    9.0316   -0.5937   -1.8477 C   0  0  0  0  0  0  0  0  0  0  0  0
    6.5591   -1.7676   -0.5249 C   0  0  0  0  0  0  0  0  0  0  0  0
    5.0245   -1.6884   -0.5984 C   0  0  0  0  0  0  0  0  0  0  0  0
    2.9540   -0.9587    0.7870 C   0  0  0  0  0  0  0  0  0  0  0  0
   -0.1805   -0.9536   -0.2559 C   0  0  0  0  0  0  0  0  0  0  0  0
   -1.6143   -1.1489   -0.7360 C   0  0  0  0  0  0  0  0  0  0  0  0
   -4.0493   -0.5145   -0.2208 C   0  0  0  0  0  0  0  0  0  0  0  0
   -7.1415    1.7256   -0.1354 C   0  0  0  0  0  0  0  0  0  0  0  0
   -7.5180    1.5248   -1.6138 C   0  0  0  0  0  0  0  0  0  0  0  0
  -10.0862    0.0156   -3.1986 H   0  0  0  0  0  0  0  0  0  0  0  0
   -9.4167    1.6120   -3.5023 H   0  0  0  0  0  0  0  0  0  0  0  0
   -8.4146    0.1724   -3.7815 H   0  0  0  0  0  0  0  0  0  0  0  0
   -9.4470   -1.1590   -1.0680 H   0  0  0  0  0  0  0  0  0  0  0  0
   -7.8829   -1.2618   -1.8885 H   0  0  0  0  0  0  0  0  0  0  0  0
   -7.7933   -1.5887    0.6899 H   0  0  0  0  0  0  0  0  0  0  0  0
   -7.9663    1.7451    2.7798 H   0  0  0  0  0  0  0  0  0  0  0  0
   -6.9771    1.7721    5.0359 H   0  0  0  0  0  0  0  0  0  0  0  0
   -4.9533    0.4182    5.5106 H   0  0  0  0  0  0  0  0  0  0  0  0
   -3.9248   -0.9262    3.7536 H   0  0  0  0  0  0  0  0  0  0  0  0
   -5.3111   -2.0611    0.7339 H   0  0  0  0  0  0  0  0  0  0  0  0
   -3.0962   -2.8472    0.7565 H   0  0  0  0  0  0  0  0  0  0  0  0
   -2.7975   -1.9343    2.2253 H   0  0  0  0  0  0  0  0  0  0  0  0
   -1.6331    0.1244    2.1015 H   0  0  0  0  0  0  0  0  0  0  0  0
   -2.9117    1.1603    1.4732 H   0  0  0  0  0  0  0  0  0  0  0  0
   -1.4689    1.6861   -0.5277 H   0  0  0  0  0  0  0  0  0  0  0  0
   -0.7177    2.1442    1.0062 H   0  0  0  0  0  0  0  0  0  0  0  0
    2.4726   -0.3683   -1.2967 H   0  0  0  0  0  0  0  0  0  0  0  0
    4.0572    1.4886    0.6050 H   0  0  0  0  0  0  0  0  0  0  0  0
    4.4850    0.9945   -1.0432 H   0  0  0  0  0  0  0  0  0  0  0  0
    5.4814   -1.6190    2.1106 H   0  0  0  0  0  0  0  0  0  0  0  0
    4.9658    0.0328    2.4293 H   0  0  0  0  0  0  0  0  0  0  0  0
    6.7320    0.9883    1.2834 H   0  0  0  0  0  0  0  0  0  0  0  0
    7.4892   -0.4653    1.9466 H   0  0  0  0  0  0  0  0  0  0  0  0
    9.0920   -1.1781    0.2298 H   0  0  0  0  0  0  0  0  0  0  0  0
   10.3074    0.8884    0.0008 H   0  0  0  0  0  0  0  0  0  0  0  0
    8.9772    1.2261    1.0869 H   0  0  0  0  0  0  0  0  0  0  0  0
    9.2478    3.0238   -0.6013 H   0  0  0  0  0  0  0  0  0  0  0  0
    7.6841    2.2448   -0.8567 H   0  0  0  0  0  0  0  0  0  0  0  0
    7.4943    0.6804   -2.7396 H   0  0  0  0  0  0  0  0  0  0  0  0
    8.9306    0.4361   -3.7377 H   0  0  0  0  0  0  0  0  0  0  0  0
    8.6707   -1.5352   -2.2682 H   0  0  0  0  0  0  0  0  0  0  0  0
   10.1281   -0.6537   -1.8829 H   0  0  0  0  0  0  0  0  0  0  0  0
    6.8633   -2.5330    0.2017 H   0  0  0  0  0  0  0  0  0  0  0  0
    6.8918   -2.1264   -1.5021 H   0  0  0  0  0  0  0  0  0  0  0  0
    4.7203   -1.3892   -1.6090 H   0  0  0  0  0  0  0  0  0  0  0  0
    4.6267   -2.6977   -0.4354 H   0  0  0  0  0  0  0  0  0  0  0  0
    2.6662   -0.6601    1.8029 H   0  0  0  0  0  0  0  0  0  0  0  0
    2.5835   -1.9737    0.6150 H   0  0  0  0  0  0  0  0  0  0  0  0
    0.5114   -1.3170   -1.0199 H   0  0  0  0  0  0  0  0  0  0  0  0
   -0.0016   -1.5227    0.6635 H   0  0  0  0  0  0  0  0  0  0  0  0
   -1.7644   -0.5576   -1.6491 H   0  0  0  0  0  0  0  0  0  0  0  0
   -1.7777   -2.1967   -1.0128 H   0  0  0  0  0  0  0  0  0  0  0  0
   -4.2440   -1.0531   -1.1574 H   0  0  0  0  0  0  0  0  0  0  0  0
   -4.3611    0.5232   -0.3656 H   0  0  0  0  0  0  0  0  0  0  0  0
   -6.1499    2.1913   -0.0880 H   0  0  0  0  0  0  0  0  0  0  0  0
   -7.8517    2.4225    0.3277 H   0  0  0  0  0  0  0  0  0  0  0  0
   -7.6959    2.5133   -2.0550 H   0  0  0  0  0  0  0  0  0  0  0  0
   -6.6751    1.0754   -2.1567 H   0  0  0  0  0  0  0  0  0  0  0  0
  1  2  1  0
  2  3  1  0
  3  4  1  0
  4  5  2  0
  5  6  1  0
  6  7  2  0
  7  8  1  0
  8  9  2  0
  9 10  1  0
 10 11  2  0
 11 12  1  0
 12 13  1  0
 13 14  1  0
 14 15  1  0
 15 16  1  0
 16 17  1  0
 17 18  1  0
 18 19  2  0
 18 20  1  0
 20 21  1  0
 21 22  1  0
 22 23  1  0
 23 24  1  0
 24 25  1  0
 25 26  1  0
 26 27  1  0
 27 28  1  0
 28 29  1  0
 29 30  1  0
 30 31  1  0
 25 32  1  0
 32 33  1  0
 22 34  1  0
 17 35  1  0
 35 36  1  0
 14 37  1  0
  5 38  1  0
 38 39  1  0
 39  2  1  0
 11  6  1  0
 37 12  1  0
 36 14  1  0
 34 20  1  0
 33 22  1  0
 31 26  1  0
  1 40  1  0
  1 41  1  0
  1 42  1  0
  3 43  1  0
  3 44  1  0
  4 45  1  0
  7 46  1  0
  8 47  1  0
  9 48  1  0
 10 49  1  0
 12 50  1  0
 13 51  1  0
 13 52  1  0
 15 53  1  0
 15 54  1  0
 16 55  1  0
 16 56  1  0
 20 57  1  0
 21 58  1  0
 21 59  1  0
 23 60  1  0
 23 61  1  0
 24 62  1  0
 24 63  1  0
 26 64  1  0
 27 65  1  0
 27 66  1  0
 28 67  1  0
 28 68  1  0
 30 69  1  0
 30 70  1  0
 31 71  1  0
 31 72  1  0
 32 73  1  0
 32 74  1  0
 33 75  1  0
 33 76  1  0
 34 77  1  0
 34 78  1  0
 35 79  1  0
 35 80  1  0
 36 81  1  0
 36 82  1  0
 37 83  1  0
 37 84  1  0
 38 85  1  0
 38 86  1  0
 39 87  1  0
 39 88  1  0
M  END
$$$$
