
     RDKit          3D

 87 94  0  0  0  0  0  0  0  0999 V2000
   -7.9536   -4.2627   -0.1095 C   0  0  0  0  0  0  0  0  0  0  0  0
   -6.5606   -3.8418   -0.2545 N   0  0  0  0  0  0  0  0  0  0  0  0
   -6.0150   -3.3342    1.0144 C   0  0  0  0  0  0  0  0  0  0  0  0
   -6.3312   -1.8962    1.3198 C   0  0  0  0  0  0  0  0  0  0  0  0
   -6.8119   -1.0438    0.3980 C   0  0  0  0  0  0  0  0  0  0  0  0
   -7.1001    0.3559    0.7436 C   0  0  0  0  0  0  0  0  0  0  0  0
   -8.3738    0.6421    1.2664 C   0  0  0  0  0  0  0  0  0  0  0  0
   -8.7204    1.9423    1.6184 C   0  0  0  0  0  0  0  0  0  0  0  0
   -7.7963    2.9637    1.4525 C   0  0  0  0  0  0  0  0  0  0  0  0
   -6.5281    2.6799    0.9378 C   0  0  0  0  0  0  0  0  0  0  0  0
   -6.1283    1.3744    0.5672 C   0  0  0  0  0  0  0  0  0  0  0  0
   -4.6635    1.0966   -0.0113 C   0  0  0  0  0  0  0  0  0  0  0  0
   -3.4341    1.6318    0.7725 C   0  0  0  0  0  0  0  0  0  0  0  0
   -2.7302    1.9070   -0.5938 C   0  0  0  0  0  0  0  0  0  0  0  0
   -1.9912    3.2538   -0.6126 C   0  0  0  0  0  0  0  0  0  0  0  0
   -0.9599    3.2854   -1.7345 C   0  0  0  0  0  0  0  0  0  0  0  0
    0.0436    2.2344   -1.5581 N   0  0  0  0  0  0  0  0  0  0  0  0
    1.3383    2.4558   -2.0373 C   0  0  0  0  0  0  0  0  0  0  0  0
    1.6095    3.4879   -2.6643 O   0  0  0  0  0  0  0  0  0  0  0  0
    2.4048    1.3653   -1.7454 C   0  0  0  0  0  0  0  0  0  0  0  0
    2.8410    1.1499   -0.2706 C   0  0  0  0  0  0  0  0  0  0  0  0
    4.3004    0.9164   -0.7688 C   0  0  0  0  0  0  0  0  0  0  0  0
    4.6197   -0.5665   -1.0314 C   0  0  0  0  0  0  0  0  0  0  0  0
    6.1271   -0.8161   -0.9887 C   0  0  0  0  0  0  0  0  0  0  0  0
    6.6495   -0.4665    0.3363 N   0  0  0  0  0  0  0  0  0  0  0  0
    7.7905   -1.0756    0.8462 C   0  0  0  0  0  0  0  0  0  0  0  0
    8.1115   -1.0652    2.2159 C   0  0  0  0  0  0  0  0  0  0  0  0
    9.1921   -1.6205    2.8339 N   0  0  0  0  0  0  0  0  0  0  0  0
   10.0058   -2.2421    1.9663 C   0  0  0  0  0  0  0  0  0  0  0  0
   11.1632   -2.8839    2.3106 N   0  0  0  0  0  0  0  0  0  0  0  0
   11.7550   -3.4086    1.1891 C   0  0  0  0  0  0  0  0  0  0  0  0
   10.9578   -3.0948    0.1074 C   0  0  0  0  0  0  0  0  0  0  0  0
    9.8445   -2.3559    0.5933 C   0  0  0  0  0  0  0  0  0  0  0  0
    8.7043   -1.7559    0.0254 C   0  0  0  0  0  0  0  0  0  0  0  0
    6.0205    0.6514    1.0513 C   0  0  0  0  0  0  0  0  0  0  0  0
    5.3830    1.6208    0.0579 C   0  0  0  0  0  0  0  0  0  0  0  0
    3.8902    1.7268   -2.0341 C   0  0  0  0  0  0  0  0  0  0  0  0
   -0.3890    1.0072   -0.8884 C   0  0  0  0  0  0  0  0  0  0  0  0
   -1.8727    0.7398   -1.1215 C   0  0  0  0  0  0  0  0  0  0  0  0
   -4.1642    1.9404   -1.2154 C   0  0  0  0  0  0  0  0  0  0  0  0
   -7.0483   -1.4764   -1.0245 C   0  0  0  0  0  0  0  0  0  0  0  0
   -6.3980   -2.8406   -1.3224 C   0  0  0  0  0  0  0  0  0  0  0  0
   -8.3377   -4.6494   -1.0602 H   0  0  0  0  0  0  0  0  0  0  0  0
   -8.0276   -5.0853    0.6107 H   0  0  0  0  0  0  0  0  0  0  0  0
   -8.6178   -3.4594    0.2265 H   0  0  0  0  0  0  0  0  0  0  0  0
   -6.3484   -3.9644    1.8483 H   0  0  0  0  0  0  0  0  0  0  0  0
   -4.9228   -3.4366    0.9859 H   0  0  0  0  0  0  0  0  0  0  0  0
   -6.1366   -1.5604    2.3350 H   0  0  0  0  0  0  0  0  0  0  0  0
   -9.1011   -0.1561    1.3990 H   0  0  0  0  0  0  0  0  0  0  0  0
   -9.7070    2.1550    2.0202 H   0  0  0  0  0  0  0  0  0  0  0  0
   -8.0560    3.9837    1.7237 H   0  0  0  0  0  0  0  0  0  0  0  0
   -5.8259    3.5041    0.8220 H   0  0  0  0  0  0  0  0  0  0  0  0
   -4.5209    0.0280   -0.2294 H   0  0  0  0  0  0  0  0  0  0  0  0
   -3.6307    2.5329    1.3660 H   0  0  0  0  0  0  0  0  0  0  0  0
   -2.9446    0.9016    1.4247 H   0  0  0  0  0  0  0  0  0  0  0  0
   -1.4722    3.4023    0.3438 H   0  0  0  0  0  0  0  0  0  0  0  0
   -2.6915    4.0895   -0.7222 H   0  0  0  0  0  0  0  0  0  0  0  0
   -0.4748    4.2669   -1.7631 H   0  0  0  0  0  0  0  0  0  0  0  0
   -1.4367    3.1201   -2.7079 H   0  0  0  0  0  0  0  0  0  0  0  0
    2.1445    0.4221   -2.2476 H   0  0  0  0  0  0  0  0  0  0  0  0
    2.3681    0.3050    0.2392 H   0  0  0  0  0  0  0  0  0  0  0  0
    2.7070    2.0395    0.3576 H   0  0  0  0  0  0  0  0  0  0  0  0
    4.2179   -0.8964   -1.9963 H   0  0  0  0  0  0  0  0  0  0  0  0
    4.1430   -1.1893   -0.2628 H   0  0  0  0  0  0  0  0  0  0  0  0
    6.2879   -1.8787   -1.2065 H   0  0  0  0  0  0  0  0  0  0  0  0
    6.6393   -0.2272   -1.7590 H   0  0  0  0  0  0  0  0  0  0  0  0
    7.4396   -0.5860    2.9243 H   0  0  0  0  0  0  0  0  0  0  0  0
   11.5060   -2.9444    3.2578 H   0  0  0  0  0  0  0  0  0  0  0  0
   12.6860   -3.9549    1.2585 H   0  0  0  0  0  0  0  0  0  0  0  0
   11.1544   -3.3669   -0.9212 H   0  0  0  0  0  0  0  0  0  0  0  0
    8.5705   -1.8128   -1.0480 H   0  0  0  0  0  0  0  0  0  0  0  0
    6.7595    1.2161    1.6323 H   0  0  0  0  0  0  0  0  0  0  0  0
    5.2663    0.2615    1.7452 H   0  0  0  0  0  0  0  0  0  0  0  0
    6.1647    2.0071   -0.6100 H   0  0  0  0  0  0  0  0  0  0  0  0
    4.9741    2.4871    0.5907 H   0  0  0  0  0  0  0  0  0  0  0  0
    4.1081    2.8004   -1.9687 H   0  0  0  0  0  0  0  0  0  0  0  0
    4.2835    1.3599   -2.9872 H   0  0  0  0  0  0  0  0  0  0  0  0
   -0.1828    1.1310    0.1810 H   0  0  0  0  0  0  0  0  0  0  0  0
    0.1928    0.1550   -1.2478 H   0  0  0  0  0  0  0  0  0  0  0  0
   -2.0383    0.6192   -2.2001 H   0  0  0  0  0  0  0  0  0  0  0  0
   -2.1558   -0.2085   -0.6508 H   0  0  0  0  0  0  0  0  0  0  0  0
   -4.6077    2.9410   -1.2816 H   0  0  0  0  0  0  0  0  0  0  0  0
   -4.2790    1.4614   -2.1930 H   0  0  0  0  0  0  0  0  0  0  0  0
   -8.1288   -1.5332   -1.2060 H   0  0  0  0  0  0  0  0  0  0  0  0
   -6.6412   -0.7374   -1.7251 H   0  0  0  0  0  0  0  0  0  0  0  0
   -5.3224   -2.6917   -1.4906 H   0  0  0  0  0  0  0  0  0  0  0  0
   -6.7864   -3.2328   -2.2706 H   0  0  0  0  0  0  0  0  0  0  0  0
  1  2  1  0
  2  3  1  0
  3  4  1  0
  4  5  2  0
  5  6  1  0
  6  7  2  0
  7  8  1  0
  8  9  2  0
  9 10  1  0
 10 11  2  0
 11 12  1  0
 12 13  1  0
 13 14  1  0
 14 15  1  0
 15 16  1  0
 16 17  1  0
 17 18  1  0
 18 19  2  0
 18 20  1  0
 20 21  1  0
 21 22  1  0
 22 23  1  0
 23 24  1  0
 24 25  1  0
 25 26  1  0
 26 27  2  0
 27 28  1  0
 28 29  2  0
 29 30  1  0
 30 31  1  0
 31 32  2  0
 32 33  1  0
 33 34  2  0
 25 35  1  0
 35 36  1  0
 22 37  1  0
 17 38  1  0
 38 39  1  0
 14 40  1  0
  5 41  1  0
 41 42  1  0
 42  2  1  0
 11  6  1  0
 40 12  1  0
 39 14  1  0
 37 20  1  0
 36 22  1  0
 34 26  1  0
 33 29  1  0
  1 43  1  0
  1 44  1  0
  1 45  1  0
  3 46  1  0
  3 47  1  0
  4 48  1  0
  7 49  1  0
  8 50  1  0
  9 51  1  0
 10 52  1  0
 12 53  1  0
 13 54  1  0
 13 55  1  0
 15 56  1  0
 15 57  1  0
 16 58  1  0
 16 59  1  0
 20 60  1  0
 21 61  1  0
 21 62  1  0
 23 63  1  0
 23 64  1  0
 24 65  1  0
 24 66  1  0
 27 67  1  0
 30 68  1  0
 31 69  1  0
 32 70  1  0
 34 71  1  0
 35 72  1  0
 35 73  1  0
 36 74  1  0
 36 75  1  0
 37 76  1  0
 37 77  1  0
 38 78  1  0
 38 79  1  0
 39 80  1  0
 39 81  1  0
 40 82  1  0
 40 83  1  0
 41 84  1  0
 41 85  1  0
 42 86  1  0
 42 87  1  0
M  END
$$$$

     RDKit          3D

 87 94  0  0  0  0  0  0  0  0999 V2000
   -7.1287   -0.8426    3.8214 C   0  0  0  0  0  0  0  0  0  0  0  0
   -6.8509   -0.2750    2.5046 N   0  0  0  0  0  0  0  0  0  0  0  0
   -7.5519   -1.0348    1.4567 C   0  0  0  0  0  0  0  0  0  0  0  0
   -7.4985   -0.3769    0.1067 C   0  0  0  0  0  0  0  0  0  0  0  0
   -7.1392    0.9075   -0.0602 C   0  0  0  0  0  0  0  0  0  0  0  0
   -7.0751    1.5068   -1.4015 C   0  0  0  0  0  0  0  0  0  0  0  0
   -8.2678    2.0240   -1.9382 C   0  0  0  0  0  0  0  0  0  0  0  0
   -8.2827    2.6107   -3.1993 C   0  0  0  0  0  0  0  0  0  0  0  0
   -7.1069    2.6834   -3.9321 C   0  0  0  0  0  0  0  0  0  0  0  0
   -5.9219    2.1644   -3.4026 C   0  0  0  0  0  0  0  0  0  0  0  0
   -5.8575    1.5537   -2.1281 C   0  0  0  0  0  0  0  0  0  0  0  0
   -4.4808    0.9643   -1.5667 C   0  0  0  0  0  0  0  0  0  0  0  0
   -3.6145    0.0585   -2.4843 C   0  0  0  0  0  0  0  0  0  0  0  0
   -2.3402    0.6958   -1.8448 C   0  0  0  0  0  0  0  0  0  0  0  0
   -1.8004   -0.0482   -0.6076 C   0  0  0  0  0  0  0  0  0  0  0  0
   -0.5812   -0.8901   -0.9688 C   0  0  0  0  0  0  0  0  0  0  0  0
    0.4963   -0.0650   -1.5173 N   0  0  0  0  0  0  0  0  0  0  0  0
    1.8546   -0.3825   -1.4204 C   0  0  0  0  0  0  0  0  0  0  0  0
    2.7139    0.3970   -1.8509 O   0  0  0  0  0  0  0  0  0  0  0  0
    2.2190   -1.7506   -0.7686 C   0  0  0  0  0  0  0  0  0  0  0  0
    2.3925   -1.7855    0.7701 C   0  0  0  0  0  0  0  0  0  0  0  0
    3.9379   -1.7880    0.5883 C   0  0  0  0  0  0  0  0  0  0  0  0
    4.5985   -0.3971    0.6936 C   0  0  0  0  0  0  0  0  0  0  0  0
    5.4042   -0.2878    1.9849 C   0  0  0  0  0  0  0  0  0  0  0  0
    6.4803   -1.2918    2.0034 N   0  0  0  0  0  0  0  0  0  0  0  0
    7.8042   -0.9057    1.7369 C   0  0  0  0  0  0  0  0  0  0  0  0
    8.8858   -1.7130    2.1360 C   0  0  0  0  0  0  0  0  0  0  0  0
   10.2152   -1.4893    1.9438 N   0  0  0  0  0  0  0  0  0  0  0  0
   10.4433   -0.3348    1.2972 C   0  0  0  0  0  0  0  0  0  0  0  0
   11.6841    0.1401    0.9733 N   0  0  0  0  0  0  0  0  0  0  0  0
   11.5664    1.3383    0.3149 C   0  0  0  0  0  0  0  0  0  0  0  0
   10.2221    1.6343    0.2182 C   0  0  0  0  0  0  0  0  0  0  0  0
    9.5025    0.5784    0.8422 C   0  0  0  0  0  0  0  0  0  0  0  0
    8.1453    0.2809    1.0720 C   0  0  0  0  0  0  0  0  0  0  0  0
    6.1377   -2.6268    1.4699 C   0  0  0  0  0  0  0  0  0  0  0  0
    4.6255   -2.8416    1.4720 C   0  0  0  0  0  0  0  0  0  0  0  0
    3.6852   -2.2404   -0.8813 C   0  0  0  0  0  0  0  0  0  0  0  0
    0.1061    1.1631   -2.2117 C   0  0  0  0  0  0  0  0  0  0  0  0
   -1.2522    1.0039   -2.8848 C   0  0  0  0  0  0  0  0  0  0  0  0
   -3.2528    1.9099   -1.4749 C   0  0  0  0  0  0  0  0  0  0  0  0
   -6.7991    1.7827    1.1170 C   0  0  0  0  0  0  0  0  0  0  0  0
   -7.2255    1.1463    2.4524 C   0  0  0  0  0  0  0  0  0  0  0  0
   -8.1916   -0.7853    4.0827 H   0  0  0  0  0  0  0  0  0  0  0  0
   -6.5561   -0.3178    4.5941 H   0  0  0  0  0  0  0  0  0  0  0  0
   -6.8196   -1.8931    3.8606 H   0  0  0  0  0  0  0  0  0  0  0  0
   -7.0852   -2.0234    1.3719 H   0  0  0  0  0  0  0  0  0  0  0  0
   -8.6075   -1.1892    1.7156 H   0  0  0  0  0  0  0  0  0  0  0  0
   -7.7622   -0.9931   -0.7485 H   0  0  0  0  0  0  0  0  0  0  0  0
   -9.1914    1.9710   -1.3661 H   0  0  0  0  0  0  0  0  0  0  0  0
   -9.2077    3.0099   -3.6054 H   0  0  0  0  0  0  0  0  0  0  0  0
   -7.1054    3.1420   -4.9175 H   0  0  0  0  0  0  0  0  0  0  0  0
   -5.0167    2.2380   -4.0031 H   0  0  0  0  0  0  0  0  0  0  0  0
   -4.6324    0.4591   -0.6017 H   0  0  0  0  0  0  0  0  0  0  0  0
   -3.7248    0.2562   -3.5572 H   0  0  0  0  0  0  0  0  0  0  0  0
   -3.7407   -1.0176   -2.3280 H   0  0  0  0  0  0  0  0  0  0  0  0
   -2.5694   -0.6862   -0.1575 H   0  0  0  0  0  0  0  0  0  0  0  0
   -1.5047    0.6793    0.1598 H   0  0  0  0  0  0  0  0  0  0  0  0
   -0.8367   -1.6370   -1.7295 H   0  0  0  0  0  0  0  0  0  0  0  0
   -0.2324   -1.4214   -0.0797 H   0  0  0  0  0  0  0  0  0  0  0  0
    1.5411   -2.5377   -1.1284 H   0  0  0  0  0  0  0  0  0  0  0  0
    1.9830   -2.6987    1.2203 H   0  0  0  0  0  0  0  0  0  0  0  0
    1.9791   -0.9315    1.3162 H   0  0  0  0  0  0  0  0  0  0  0  0
    3.8485    0.4008    0.6656 H   0  0  0  0  0  0  0  0  0  0  0  0
    5.2684   -0.2346   -0.1599 H   0  0  0  0  0  0  0  0  0  0  0  0
    4.7478   -0.4756    2.8444 H   0  0  0  0  0  0  0  0  0  0  0  0
    5.7754    0.7323    2.1311 H   0  0  0  0  0  0  0  0  0  0  0  0
    8.6905   -2.6309    2.6867 H   0  0  0  0  0  0  0  0  0  0  0  0
   12.5410   -0.3430    1.1978 H   0  0  0  0  0  0  0  0  0  0  0  0
   12.4436    1.8717   -0.0257 H   0  0  0  0  0  0  0  0  0  0  0  0
    9.8016    2.5144   -0.2503 H   0  0  0  0  0  0  0  0  0  0  0  0
    7.3956    0.9670    0.6988 H   0  0  0  0  0  0  0  0  0  0  0  0
    6.5133   -2.7352    0.4435 H   0  0  0  0  0  0  0  0  0  0  0  0
    6.6002   -3.4056    2.0868 H   0  0  0  0  0  0  0  0  0  0  0  0
    4.3923   -3.8566    1.1297 H   0  0  0  0  0  0  0  0  0  0  0  0
    4.2510   -2.7689    2.5016 H   0  0  0  0  0  0  0  0  0  0  0  0
    4.2960   -1.7548   -1.6488 H   0  0  0  0  0  0  0  0  0  0  0  0
    3.7573   -3.3231   -1.0451 H   0  0  0  0  0  0  0  0  0  0  0  0
    0.0802    1.9652   -1.4646 H   0  0  0  0  0  0  0  0  0  0  0  0
    0.8602    1.4289   -2.9600 H   0  0  0  0  0  0  0  0  0  0  0  0
   -1.4952    1.9054   -3.4585 H   0  0  0  0  0  0  0  0  0  0  0  0
   -1.1896    0.1792   -3.6072 H   0  0  0  0  0  0  0  0  0  0  0  0
   -3.0877    2.3574   -0.4896 H   0  0  0  0  0  0  0  0  0  0  0  0
   -3.2529    2.7207   -2.2133 H   0  0  0  0  0  0  0  0  0  0  0  0
   -7.2904    2.7588    1.0239 H   0  0  0  0  0  0  0  0  0  0  0  0
   -5.7166    1.9618    1.1296 H   0  0  0  0  0  0  0  0  0  0  0  0
   -8.3086    1.2666    2.5924 H   0  0  0  0  0  0  0  0  0  0  0  0
   -6.7334    1.6984    3.2627 H   0  0  0  0  0  0  0  0  0  0  0  0
  1  2  1  0
  2  3  1  0
  3  4  1  0
  4  5  2  0
  5  6  1  0
  6  7  2  0
  7  8  1  0
  8  9  2  0
  9 10  1  0
 10 11  2  0
 11 12  1  0
 12 13  1  0
 13 14  1  0
 14 15  1  0
 15 16  1  0
 16 17  1  0
 17 18  1  0
 18 19  2  0
 18 20  1  0
 20 21  1  0
 21 22  1  0
 22 23  1  0
 23 24  1  0
 24 25  1  0
 25 26  1  0
 26 27  2  0
 27 28  1  0
 28 29  2  0
 29 30  1  0
 30 31  1  0
 31 32  2  0
 32 33  1  0
 33 34  2  0
 25 35  1  0
 35 36  1  0
 22 37  1  0
 17 38  1  0
 38 39  1  0
 14 40  1  0
  5 41  1  0
 41 42  1  0
 42  2  1  0
 11  6  1  0
 40 12  1  0
 39 14  1  0
 37 20  1  0
 36 22  1  0
 34 26  1  0
 33 29  1  0
  1 43  1  0
  1 44  1  0
  1 45  1  0
  3 46  1  0
  3 47  1  0
  4 48  1  0
  7 49  1  0
  8 50  1  0
  9 51  1  0
 10 52  1  0
 12 53  1  0
 13 54  1  0
 13 55  1  0
 15 56  1  0
 15 57  1  0
 16 58  1  0
 16 59  1  0
 20 60  1  0
 21 61  1  0
 21 62  1  0
 23 63  1  0
 23 64  1  0
 24 65  1  0
 24 66  1  0
 27 67  1  0
 30 68  1  0
 31 69  1  0
 32 70  1  0
 34 71  1  0
 35 72  1  0
 35 73  1  0
 36 74  1  0
 36 75  1  0
 37 76  1  0
 37 77  1  0
 38 78  1  0
 38 79  1  0
 39 80  1  0
 39 81  1  0
 40 82  1  0
 40 83  1  0
 41 84  1  0
 41 85  1  0
 42 86  1  0
 42 87  1  0
M  END
$$$$

     RDKit          3D

 87 94  0  0  0  0  0  0  0  0999 V2000
    6.6157   -1.7275    3.1769 C   0  0  0  0  0  0  0  0  0  0  0  0
    6.3072   -0.8433    2.0563 N   0  0  0  0  0  0  0  0  0  0  0  0
    5.9204    0.4907    2.5416 C   0  0  0  0  0  0  0  0  0  0  0  0
    5.8192    1.5180    1.4493 C   0  0  0  0  0  0  0  0  0  0  0  0
    6.3222    1.3237    0.2172 C   0  0  0  0  0  0  0  0  0  0  0  0
    6.1940    2.3574   -0.8233 C   0  0  0  0  0  0  0  0  0  0  0  0
    7.0225    3.4901   -0.7109 C   0  0  0  0  0  0  0  0  0  0  0  0
    6.9817    4.5011   -1.6654 C   0  0  0  0  0  0  0  0  0  0  0  0
    6.1159    4.3866   -2.7425 C   0  0  0  0  0  0  0  0  0  0  0  0
    5.2875    3.2664   -2.8547 C   0  0  0  0  0  0  0  0  0  0  0  0
    5.2802    2.2217   -1.9005 C   0  0  0  0  0  0  0  0  0  0  0  0
    4.3036    0.9669   -2.0763 C   0  0  0  0  0  0  0  0  0  0  0  0
    2.9956    1.1283   -2.9092 C   0  0  0  0  0  0  0  0  0  0  0  0
    2.2975    0.1273   -1.9400 C   0  0  0  0  0  0  0  0  0  0  0  0
    0.8639    0.5466   -1.5842 C   0  0  0  0  0  0  0  0  0  0  0  0
    0.0867   -0.6385   -1.0189 C   0  0  0  0  0  0  0  0  0  0  0  0
   -0.0248   -1.7158   -2.0016 N   0  0  0  0  0  0  0  0  0  0  0  0
   -1.1248   -2.5639   -2.1828 C   0  0  0  0  0  0  0  0  0  0  0  0
   -1.1478   -3.3172   -3.1733 O   0  0  0  0  0  0  0  0  0  0  0  0
   -2.2997   -2.6158   -1.1942 C   0  0  0  0  0  0  0  0  0  0  0  0
   -2.1461   -2.5437    0.3379 C   0  0  0  0  0  0  0  0  0  0  0  0
   -3.4854   -1.7472    0.4060 C   0  0  0  0  0  0  0  0  0  0  0  0
   -3.4188   -0.5203    1.3205 C   0  0  0  0  0  0  0  0  0  0  0  0
   -4.7299    0.2642    1.2476 C   0  0  0  0  0  0  0  0  0  0  0  0
   -5.8591   -0.6229    1.5908 N   0  0  0  0  0  0  0  0  0  0  0  0
   -7.0419    0.0851    1.8880 C   0  0  0  0  0  0  0  0  0  0  0  0
   -7.0922    0.9624    2.9870 C   0  0  0  0  0  0  0  0  0  0  0  0
   -8.1424    1.7214    3.4027 N   0  0  0  0  0  0  0  0  0  0  0  0
   -9.2290    1.5442    2.6336 C   0  0  0  0  0  0  0  0  0  0  0  0
  -10.4259    2.1771    2.8261 N   0  0  0  0  0  0  0  0  0  0  0  0
  -11.3242    1.7736    1.8705 C   0  0  0  0  0  0  0  0  0  0  0  0
  -10.6873    0.8632    1.0523 C   0  0  0  0  0  0  0  0  0  0  0  0
   -9.3568    0.7113    1.5304 C   0  0  0  0  0  0  0  0  0  0  0  0
   -8.2289   -0.0421    1.1517 C   0  0  0  0  0  0  0  0  0  0  0  0
   -5.9806   -1.8011    0.7170 C   0  0  0  0  0  0  0  0  0  0  0  0
   -4.6918   -2.6239    0.7751 C   0  0  0  0  0  0  0  0  0  0  0  0
   -3.3132   -1.4547   -1.1178 C   0  0  0  0  0  0  0  0  0  0  0  0
    1.0887   -1.8433   -2.9487 C   0  0  0  0  0  0  0  0  0  0  0  0
    2.4033   -1.3539   -2.3496 C   0  0  0  0  0  0  0  0  0  0  0  0
    3.3755    0.5553   -0.8963 C   0  0  0  0  0  0  0  0  0  0  0  0
    7.0635    0.0579   -0.1262 C   0  0  0  0  0  0  0  0  0  0  0  0
    7.4448   -0.7471    1.1295 C   0  0  0  0  0  0  0  0  0  0  0  0
    7.4719   -1.3733    3.7622 H   0  0  0  0  0  0  0  0  0  0  0  0
    6.8394   -2.7383    2.8180 H   0  0  0  0  0  0  0  0  0  0  0  0
    5.7527   -1.8159    3.8462 H   0  0  0  0  0  0  0  0  0  0  0  0
    6.6324    0.8636    3.2893 H   0  0  0  0  0  0  0  0  0  0  0  0
    4.9408    0.4142    3.0284 H   0  0  0  0  0  0  0  0  0  0  0  0
    5.3076    2.4438    1.6983 H   0  0  0  0  0  0  0  0  0  0  0  0
    7.7134    3.5795    0.1248 H   0  0  0  0  0  0  0  0  0  0  0  0
    7.6285    5.3686   -1.5707 H   0  0  0  0  0  0  0  0  0  0  0  0
    6.0810    5.1652   -3.5001 H   0  0  0  0  0  0  0  0  0  0  0  0
    4.6255    3.2057   -3.7168 H   0  0  0  0  0  0  0  0  0  0  0  0
    4.8865    0.1087   -2.4452 H   0  0  0  0  0  0  0  0  0  0  0  0
    3.0644    0.8148   -3.9554 H   0  0  0  0  0  0  0  0  0  0  0  0
    2.5673    2.1385   -2.8828 H   0  0  0  0  0  0  0  0  0  0  0  0
    0.8592    1.3744   -0.8662 H   0  0  0  0  0  0  0  0  0  0  0  0
    0.3497    0.9083   -2.4846 H   0  0  0  0  0  0  0  0  0  0  0  0
   -0.8986   -0.2971   -0.7104 H   0  0  0  0  0  0  0  0  0  0  0  0
    0.6020   -1.0475   -0.1426 H   0  0  0  0  0  0  0  0  0  0  0  0
   -2.8574   -3.5433   -1.4244 H   0  0  0  0  0  0  0  0  0  0  0  0
   -2.1540   -3.5188    0.8382 H   0  0  0  0  0  0  0  0  0  0  0  0
   -1.2777   -2.0019    0.7175 H   0  0  0  0  0  0  0  0  0  0  0  0
   -2.5861    0.1359    1.0424 H   0  0  0  0  0  0  0  0  0  0  0  0
   -3.2414   -0.8407    2.3553 H   0  0  0  0  0  0  0  0  0  0  0  0
   -4.6482    1.1128    1.9363 H   0  0  0  0  0  0  0  0  0  0  0  0
   -4.8744    0.6726    0.2389 H   0  0  0  0  0  0  0  0  0  0  0  0
   -6.2156    1.0671    3.6236 H   0  0  0  0  0  0  0  0  0  0  0  0
  -10.5935    2.8368    3.5712 H   0  0  0  0  0  0  0  0  0  0  0  0
  -12.3321    2.1663    1.8572 H   0  0  0  0  0  0  0  0  0  0  0  0
  -11.1310    0.3609    0.2028 H   0  0  0  0  0  0  0  0  0  0  0  0
   -8.3039   -0.6889    0.2870 H   0  0  0  0  0  0  0  0  0  0  0  0
   -6.8045   -2.4444    1.0501 H   0  0  0  0  0  0  0  0  0  0  0  0
   -6.1812   -1.4916   -0.3162 H   0  0  0  0  0  0  0  0  0  0  0  0
   -4.5593   -3.0218    1.7896 H   0  0  0  0  0  0  0  0  0  0  0  0
   -4.7796   -3.4853    0.1030 H   0  0  0  0  0  0  0  0  0  0  0  0
   -4.2068   -1.5958   -1.7348 H   0  0  0  0  0  0  0  0  0  0  0  0
   -2.9085   -0.4664   -1.3569 H   0  0  0  0  0  0  0  0  0  0  0  0
    1.1966   -2.8890   -3.2571 H   0  0  0  0  0  0  0  0  0  0  0  0
    0.8268   -1.2591   -3.8392 H   0  0  0  0  0  0  0  0  0  0  0  0
    3.2171   -1.5136   -3.0659 H   0  0  0  0  0  0  0  0  0  0  0  0
    2.6330   -1.9663   -1.4679 H   0  0  0  0  0  0  0  0  0  0  0  0
    3.0792    1.3958   -0.2561 H   0  0  0  0  0  0  0  0  0  0  0  0
    3.7553   -0.2439   -0.2527 H   0  0  0  0  0  0  0  0  0  0  0  0
    7.9795    0.2907   -0.6824 H   0  0  0  0  0  0  0  0  0  0  0  0
    6.4374   -0.5669   -0.7736 H   0  0  0  0  0  0  0  0  0  0  0  0
    7.7579   -1.7481    0.8075 H   0  0  0  0  0  0  0  0  0  0  0  0
    8.3095   -0.2822    1.6227 H   0  0  0  0  0  0  0  0  0  0  0  0
  1  2  1  0
  2  3  1  0
  3  4  1  0
  4  5  2  0
  5  6  1  0
  6  7  2  0
  7  8  1  0
  8  9  2  0
  9 10  1  0
 10 11  2  0
 11 12  1  0
 12 13  1  0
 13 14  1  0
 14 15  1  0
 15 16  1  0
 16 17  1  0
 17 18  1  0
 18 19  2  0
 18 20  1  0
 20 21  1  0
 21 22  1  0
 22 23  1  0
 23 24  1  0
 24 25  1  0
 25 26  1  0
 26 27  2  0
 27 28  1  0
 28 29  2  0
 29 30  1  0
 30 31  1  0
 31 32  2  0
 32 33  1  0
 33 34  2  0
 25 35  1  0
 35 36  1  0
 22 37  1  0
 17 38  1  0
 38 39  1  0
 14 40  1  0
  5 41  1  0
 41 42  1  0
 42  2  1  0
 11  6  1  0
 40 12  1  0
 39 14  1  0
 37 20  1  0
 36 22  1  0
 34 26  1  0
 33 29  1  0
  1 43  1  0
  1 44  1  0
  1 45  1  0
  3 46  1  0
  3 47  1  0
  4 48  1  0
  7 49  1  0
  8 50  1  0
  9 51  1  0
 10 52  1  0
 12 53  1  0
 13 54  1  0
 13 55  1  0
 15 56  1  0
 15 57  1  0
 16 58  1  0
 16 59  1  0
 20 60  1  0
 21 61  1  0
 21 62  1  0
 23 63  1  0
 23 64  1  0
 24 65  1  0
 24 66  1  0
 27 67  1  0
 30 68  1  0
 31 69  1  0
 32 70  1  0
 34 71  1  0
 35 72  1  0
 35 73  1  0
 36 74  1  0
 36 75  1  0
 37 76  1  0
 37 77  1  0
 38 78  1  0
 38 79  1  0
 39 80  1  0
 39 81  1  0
 40 82  1  0
 40 83  1  0
 41 84  1  0
 41 85  1  0
 42 86  1  0
 42 87  1  0
M  END
$$$$
