
     RDKit          3D

 90 96  0  0  0  0  0  0  0  0999 V2000
   -7.8555    3.3017    1.2150 C   0  0  0  0  0  0  0  0  0  0  0  0
   -7.0483    2.1932    0.7131 N   0  0  0  0  0  0  0  0  0  0  0  0
   -5.6722    2.2838    1.2289 C   0  0  0  0  0  0  0  0  0  0  0  0
   -4.8479    1.0628    0.9358 C   0  0  0  0  0  0  0  0  0  0  0  0
   -5.3793   -0.0952    0.5081 C   0  0  0  0  0  0  0  0  0  0  0  0
   -4.5386   -1.2710    0.2363 C   0  0  0  0  0  0  0  0  0  0  0  0
   -4.5500   -2.2668    1.2358 C   0  0  0  0  0  0  0  0  0  0  0  0
   -3.8293   -3.4508    1.0964 C   0  0  0  0  0  0  0  0  0  0  0  0
   -3.0857   -3.6655   -0.0525 C   0  0  0  0  0  0  0  0  0  0  0  0
   -3.0548   -2.6881   -1.0475 C   0  0  0  0  0  0  0  0  0  0  0  0
   -3.7554   -1.4620   -0.9230 C   0  0  0  0  0  0  0  0  0  0  0  0
   -3.6085   -0.4907   -2.0871 C   0  0  1  0  0  0  0  0  0  0  0  0
   -4.8638   -0.3860   -2.9707 C   0  0  0  0  0  0  0  0  0  0  0  0
   -5.3560    1.0464   -2.8060 C   0  0  0  0  0  0  0  0  0  0  0  0
   -4.1071    1.8283   -2.4560 C   0  0  0  0  0  0  0  0  0  0  0  0
   -3.2382    0.8872   -1.7733 N   0  0  0  0  0  0  0  0  0  0  0  0
   -2.0225    1.3423   -1.2736 C   0  0  0  0  0  0  0  0  0  0  0  0
   -1.7752    2.5563   -1.2586 O   0  0  0  0  0  0  0  0  0  0  0  0
   -1.0141    0.2915   -0.7415 C   0  0  0  0  0  0  0  0  0  0  0  0
   -0.1056   -0.4234   -1.7777 C   0  0  0  0  0  0  0  0  0  0  0  0
    1.0579   -0.3705   -0.7472 C   0  0  0  0  0  0  0  0  0  0  0  0
    2.4083   -0.0159   -1.3775 C   0  0  0  0  0  0  0  0  0  0  0  0
    3.4662    0.1649   -0.2872 C   0  0  0  0  0  0  0  0  0  0  0  0
    3.5340   -1.0358    0.5554 N   0  0  0  0  0  0  0  0  0  0  0  0
    4.5961   -1.9198    0.3565 C   0  0  0  0  0  0  0  0  0  0  0  0
    4.3498   -3.2594   -0.0028 C   0  0  0  0  0  0  0  0  0  0  0  0
    5.3833   -4.1723   -0.2304 C   0  0  0  0  0  0  0  0  0  0  0  0
    6.7032   -3.7718   -0.0917 C   0  0  0  0  0  0  0  0  0  0  0  0
    6.9865   -2.4600    0.2805 C   0  0  0  0  0  0  0  0  0  0  0  0
    5.9565   -1.5243    0.5082 C   0  0  0  0  0  0  0  0  0  0  0  0
    6.3704   -0.1783    0.9777 C   0  0  0  0  0  0  0  0  0  0  0  0
    5.9575    0.2963    2.1674 C   0  0  0  0  0  0  0  0  0  0  0  0
    6.3247    1.6558    2.6862 C   0  0  0  0  0  0  0  0  0  0  0  0
    6.8968    2.5413    1.6595 N   0  0  0  0  0  0  0  0  0  0  0  0
    7.4469    3.7475    2.2706 C   0  0  0  0  0  0  0  0  0  0  0  0
    7.9159    1.8293    0.8772 C   0  0  0  0  0  0  0  0  0  0  0  0
    7.3009    0.6405    0.1153 C   0  0  0  0  0  0  0  0  0  0  0  0
    2.2747   -1.4727    1.1589 C   0  0  0  0  0  0  0  0  0  0  0  0
    1.1789   -1.6436    0.1056 C   0  0  0  0  0  0  0  0  0  0  0  0
    0.2963    0.8190   -0.0885 C   0  0  0  0  0  0  0  0  0  0  0  0
   -6.8774   -0.2652    0.4115 C   0  0  0  0  0  0  0  0  0  0  0  0
   -7.6454    0.8984    1.0663 C   0  0  0  0  0  0  0  0  0  0  0  0
   -7.4164    4.2616    0.9210 H   0  0  0  0  0  0  0  0  0  0  0  0
   -7.9511    3.2854    2.3067 H   0  0  0  0  0  0  0  0  0  0  0  0
   -8.8613    3.2708    0.7816 H   0  0  0  0  0  0  0  0  0  0  0  0
   -5.6644    2.4442    2.3149 H   0  0  0  0  0  0  0  0  0  0  0  0
   -5.1802    3.1465    0.7640 H   0  0  0  0  0  0  0  0  0  0  0  0
   -3.7759    1.1638    1.0781 H   0  0  0  0  0  0  0  0  0  0  0  0
   -5.1331   -2.1184    2.1436 H   0  0  0  0  0  0  0  0  0  0  0  0
   -3.8577   -4.2018    1.8809 H   0  0  0  0  0  0  0  0  0  0  0  0
   -2.5281   -4.5899   -0.1780 H   0  0  0  0  0  0  0  0  0  0  0  0
   -2.4615   -2.8923   -1.9380 H   0  0  0  0  0  0  0  0  0  0  0  0
   -2.7978   -0.8577   -2.7305 H   0  0  0  0  0  0  0  0  0  0  0  0
   -5.6407   -1.1204   -2.7353 H   0  0  0  0  0  0  0  0  0  0  0  0
   -4.5792   -0.5426   -4.0192 H   0  0  0  0  0  0  0  0  0  0  0  0
   -6.0814    1.1131   -1.9933 H   0  0  0  0  0  0  0  0  0  0  0  0
   -5.8457    1.4274   -3.7072 H   0  0  0  0  0  0  0  0  0  0  0  0
   -3.5914    2.1659   -3.3627 H   0  0  0  0  0  0  0  0  0  0  0  0
   -4.3128    2.7006   -1.8281 H   0  0  0  0  0  0  0  0  0  0  0  0
   -1.4967   -0.4056   -0.0462 H   0  0  0  0  0  0  0  0  0  0  0  0
    0.0646    0.1654   -2.6880 H   0  0  0  0  0  0  0  0  0  0  0  0
   -0.4247   -1.4248   -2.0790 H   0  0  0  0  0  0  0  0  0  0  0  0
    2.7178   -0.8149   -2.0635 H   0  0  0  0  0  0  0  0  0  0  0  0
    2.3368    0.9038   -1.9702 H   0  0  0  0  0  0  0  0  0  0  0  0
    3.2091    1.0224    0.3464 H   0  0  0  0  0  0  0  0  0  0  0  0
    4.4168    0.4007   -0.7743 H   0  0  0  0  0  0  0  0  0  0  0  0
    3.3326   -3.6126   -0.1361 H   0  0  0  0  0  0  0  0  0  0  0  0
    5.1497   -5.1944   -0.5154 H   0  0  0  0  0  0  0  0  0  0  0  0
    7.5113   -4.4782   -0.2583 H   0  0  0  0  0  0  0  0  0  0  0  0
    8.0265   -2.1761    0.4224 H   0  0  0  0  0  0  0  0  0  0  0  0
    5.3100   -0.3052    2.8002 H   0  0  0  0  0  0  0  0  0  0  0  0
    5.4171    2.1251    3.0844 H   0  0  0  0  0  0  0  0  0  0  0  0
    7.0200    1.5192    3.5247 H   0  0  0  0  0  0  0  0  0  0  0  0
    7.8139    4.4349    1.5004 H   0  0  0  0  0  0  0  0  0  0  0  0
    8.2734    3.5266    2.9558 H   0  0  0  0  0  0  0  0  0  0  0  0
    6.6713    4.2851    2.8274 H   0  0  0  0  0  0  0  0  0  0  0  0
    8.7267    1.4738    1.5280 H   0  0  0  0  0  0  0  0  0  0  0  0
    8.3684    2.5048    0.1406 H   0  0  0  0  0  0  0  0  0  0  0  0
    6.7379    1.0177   -0.7477 H   0  0  0  0  0  0  0  0  0  0  0  0
    8.1218    0.0323   -0.2797 H   0  0  0  0  0  0  0  0  0  0  0  0
    1.9661   -0.7069    1.8813 H   0  0  0  0  0  0  0  0  0  0  0  0
    2.3957   -2.3956    1.7386 H   0  0  0  0  0  0  0  0  0  0  0  0
    1.4105   -2.4936   -0.5465 H   0  0  0  0  0  0  0  0  0  0  0  0
    0.2336   -1.8825    0.6062 H   0  0  0  0  0  0  0  0  0  0  0  0
    0.6135    1.8059   -0.4470 H   0  0  0  0  0  0  0  0  0  0  0  0
    0.2883    0.8427    1.0053 H   0  0  0  0  0  0  0  0  0  0  0  0
   -7.1961   -1.1968    0.8944 H   0  0  0  0  0  0  0  0  0  0  0  0
   -7.1630   -0.3432   -0.6440 H   0  0  0  0  0  0  0  0  0  0  0  0
   -8.6860    0.8528    0.7219 H   0  0  0  0  0  0  0  0  0  0  0  0
   -7.6621    0.7642    2.1567 H   0  0  0  0  0  0  0  0  0  0  0  0
  1  2  1  0
  2  3  1  0
  3  4  1  0
  4  5  2  0
  5  6  1  0
  6  7  2  0
  7  8  1  0
  8  9  2  0
  9 10  1  0
 10 11  2  0
 11 12  1  0
 12 13  1  0
 13 14  1  0
 14 15  1  0
 15 16  1  0
 16 17  1  0
 17 18  2  0
 17 19  1  0
 19 20  1  0
 20 21  1  0
 21 22  1  0
 22 23  1  0
 23 24  1  0
 24 25  1  0
 25 26  2  0
 26 27  1  0
 27 28  2  0
 28 29  1  0
 29 30  2  0
 30 31  1  0
 31 32  2  0
 32 33  1  0
 33 34  1  0
 34 35  1  0
 34 36  1  0
 36 37  1  0
 24 38  1  0
 38 39  1  0
 21 40  1  0
  5 41  1  0
 41 42  1  0
 42  2  1  0
 11  6  1  0
 16 12  1  0
 40 19  1  0
 39 21  1  0
 30 25  1  0
 37 31  1  0
  1 43  1  0
  1 44  1  0
  1 45  1  0
  3 46  1  0
  3 47  1  0
  4 48  1  0
  7 49  1  0
  8 50  1  0
  9 51  1  0
 10 52  1  0
 12 53  1  6
 13 54  1  0
 13 55  1  0
 14 56  1  0
 14 57  1  0
 15 58  1  0
 15 59  1  0
 19 60  1  0
 20 61  1  0
 20 62  1  0
 22 63  1  0
 22 64  1  0
 23 65  1  0
 23 66  1  0
 26 67  1  0
 27 68  1  0
 28 69  1  0
 29 70  1  0
 32 71  1  0
 33 72  1  0
 33 73  1  0
 35 74  1  0
 35 75  1  0
 35 76  1  0
 36 77  1  0
 36 78  1  0
 37 79  1  0
 37 80  1  0
 38 81  1  0
 38 82  1  0
 39 83  1  0
 39 84  1  0
 40 85  1  0
 40 86  1  0
 41 87  1  0
 41 88  1  0
 42 89  1  0
 42 90  1  0
M  END
$$$$

     RDKit          3D

 90 96  0  0  0  0  0  0  0  0999 V2000
   -9.9756    0.3247   -0.3651 C   0  0  0  0  0  0  0  0  0  0  0  0
   -8.8898    1.1800   -0.8427 N   0  0  0  0  0  0  0  0  0  0  0  0
   -7.8450    0.3943   -1.5205 C   0  0  0  0  0  0  0  0  0  0  0  0
   -6.8345   -0.2457   -0.6105 C   0  0  0  0  0  0  0  0  0  0  0  0
   -6.6849    0.1005    0.6804 C   0  0  0  0  0  0  0  0  0  0  0  0
   -5.6918   -0.5758    1.5312 C   0  0  0  0  0  0  0  0  0  0  0  0
   -6.1790   -1.5073    2.4647 C   0  0  0  0  0  0  0  0  0  0  0  0
   -5.3103   -2.2044    3.3020 C   0  0  0  0  0  0  0  0  0  0  0  0
   -3.9424   -1.9797    3.2160 C   0  0  0  0  0  0  0  0  0  0  0  0
   -3.4438   -1.0574    2.2943 C   0  0  0  0  0  0  0  0  0  0  0  0
   -4.3005   -0.3408    1.4328 C   0  0  0  0  0  0  0  0  0  0  0  0
   -3.7399    0.7010    0.4664 C   0  0  1  0  0  0  0  0  0  0  0  0
   -3.6802    2.0931    1.1162 C   0  0  0  0  0  0  0  0  0  0  0  0
   -2.2493    2.1908    1.6276 C   0  0  0  0  0  0  0  0  0  0  0  0
   -1.4615    1.4754    0.5421 C   0  0  0  0  0  0  0  0  0  0  0  0
   -2.3537    0.4390    0.0501 N   0  0  0  0  0  0  0  0  0  0  0  0
   -2.0927   -0.5251   -0.9186 C   0  0  0  0  0  0  0  0  0  0  0  0
   -3.0409   -1.1220   -1.4560 O   0  0  0  0  0  0  0  0  0  0  0  0
   -0.6515   -0.8929   -1.3100 C   0  0  0  0  0  0  0  0  0  0  0  0
    0.3594   -1.3540   -0.2379 C   0  0  0  0  0  0  0  0  0  0  0  0
    1.4959   -0.6771   -1.0603 C   0  0  0  0  0  0  0  0  0  0  0  0
    2.4538    0.1547   -0.1984 C   0  0  0  0  0  0  0  0  0  0  0  0
    3.4831    0.8592   -1.0845 C   0  0  0  0  0  0  0  0  0  0  0  0
    4.1864   -0.1463   -1.8999 N   0  0  0  0  0  0  0  0  0  0  0  0
    5.3862    0.3584   -2.4470 C   0  0  0  0  0  0  0  0  0  0  0  0
    5.4571    0.7831   -3.7880 C   0  0  0  0  0  0  0  0  0  0  0  0
    6.6291    1.3200   -4.3272 C   0  0  0  0  0  0  0  0  0  0  0  0
    7.7633    1.4457   -3.5367 C   0  0  0  0  0  0  0  0  0  0  0  0
    7.7256    1.0315   -2.2070 C   0  0  0  0  0  0  0  0  0  0  0  0
    6.5529    0.4884   -1.6452 C   0  0  0  0  0  0  0  0  0  0  0  0
    6.6234    0.0224   -0.2392 C   0  0  0  0  0  0  0  0  0  0  0  0
    6.9839    0.8508    0.7594 C   0  0  0  0  0  0  0  0  0  0  0  0
    7.0816    0.4151    2.1947 C   0  0  0  0  0  0  0  0  0  0  0  0
    6.4532   -0.8861    2.4653 N   0  0  0  0  0  0  0  0  0  0  0  0
    6.8133   -1.3662    3.7960 C   0  0  0  0  0  0  0  0  0  0  0  0
    6.8236   -1.8639    1.4309 C   0  0  0  0  0  0  0  0  0  0  0  0
    6.3068   -1.4243    0.0495 C   0  0  0  0  0  0  0  0  0  0  0  0
    3.3082   -0.9164   -2.7884 C   0  0  0  0  0  0  0  0  0  0  0  0
    2.2769   -1.6669   -1.9418 C   0  0  0  0  0  0  0  0  0  0  0  0
    0.3856    0.1393   -1.7946 C   0  0  0  0  0  0  0  0  0  0  0  0
   -7.5442    1.1676    1.3049 C   0  0  0  0  0  0  0  0  0  0  0  0
   -8.3048    1.9843    0.2429 C   0  0  0  0  0  0  0  0  0  0  0  0
  -10.7488    0.9261    0.1260 H   0  0  0  0  0  0  0  0  0  0  0  0
  -10.4634   -0.1751   -1.2097 H   0  0  0  0  0  0  0  0  0  0  0  0
   -9.6443   -0.4469    0.3379 H   0  0  0  0  0  0  0  0  0  0  0  0
   -8.3024   -0.3753   -2.1546 H   0  0  0  0  0  0  0  0  0  0  0  0
   -7.3037    1.0583   -2.2064 H   0  0  0  0  0  0  0  0  0  0  0  0
   -6.1980   -1.0096   -1.0546 H   0  0  0  0  0  0  0  0  0  0  0  0
   -7.2469   -1.7040    2.5333 H   0  0  0  0  0  0  0  0  0  0  0  0
   -5.7020   -2.9262    4.0132 H   0  0  0  0  0  0  0  0  0  0  0  0
   -3.2592   -2.5240    3.8625 H   0  0  0  0  0  0  0  0  0  0  0  0
   -2.3680   -0.9059    2.2530 H   0  0  0  0  0  0  0  0  0  0  0  0
   -4.3465    0.7439   -0.4428 H   0  0  0  0  0  0  0  0  0  0  0  0
   -4.4187    2.2570    1.9064 H   0  0  0  0  0  0  0  0  0  0  0  0
   -3.8357    2.8607    0.3472 H   0  0  0  0  0  0  0  0  0  0  0  0
   -2.1511    1.6642    2.5837 H   0  0  0  0  0  0  0  0  0  0  0  0
   -1.9196    3.2233    1.7726 H   0  0  0  0  0  0  0  0  0  0  0  0
   -1.2582    2.1621   -0.2858 H   0  0  0  0  0  0  0  0  0  0  0  0
   -0.5234    1.0677    0.9159 H   0  0  0  0  0  0  0  0  0  0  0  0
   -0.7243   -1.6858   -2.0774 H   0  0  0  0  0  0  0  0  0  0  0  0
    0.4396   -2.4410   -0.1266 H   0  0  0  0  0  0  0  0  0  0  0  0
    0.2014   -0.9390    0.7619 H   0  0  0  0  0  0  0  0  0  0  0  0
    1.9090    0.9010    0.3910 H   0  0  0  0  0  0  0  0  0  0  0  0
    2.9703   -0.5002    0.5149 H   0  0  0  0  0  0  0  0  0  0  0  0
    4.1666    1.4192   -0.4365 H   0  0  0  0  0  0  0  0  0  0  0  0
    2.9860    1.5872   -1.7389 H   0  0  0  0  0  0  0  0  0  0  0  0
    4.5870    0.7230   -4.4342 H   0  0  0  0  0  0  0  0  0  0  0  0
    6.6497    1.6419   -5.3649 H   0  0  0  0  0  0  0  0  0  0  0  0
    8.6780    1.8584   -3.9529 H   0  0  0  0  0  0  0  0  0  0  0  0
    8.6290    1.1161   -1.6069 H   0  0  0  0  0  0  0  0  0  0  0  0
    7.2234    1.8906    0.5561 H   0  0  0  0  0  0  0  0  0  0  0  0
    6.5912    1.1745    2.8155 H   0  0  0  0  0  0  0  0  0  0  0  0
    8.1452    0.4049    2.4670 H   0  0  0  0  0  0  0  0  0  0  0  0
    6.5080   -0.6440    4.5614 H   0  0  0  0  0  0  0  0  0  0  0  0
    7.8904   -1.5419    3.8972 H   0  0  0  0  0  0  0  0  0  0  0  0
    6.2901   -2.3022    4.0211 H   0  0  0  0  0  0  0  0  0  0  0  0
    6.3839   -2.8424    1.6608 H   0  0  0  0  0  0  0  0  0  0  0  0
    7.9133   -2.0002    1.3967 H   0  0  0  0  0  0  0  0  0  0  0  0
    5.2235   -1.5832    0.0176 H   0  0  0  0  0  0  0  0  0  0  0  0
    6.7575   -2.0720   -0.7123 H   0  0  0  0  0  0  0  0  0  0  0  0
    2.7942   -0.2568   -3.4978 H   0  0  0  0  0  0  0  0  0  0  0  0
    3.8885   -1.6506   -3.3604 H   0  0  0  0  0  0  0  0  0  0  0  0
    1.6058   -2.2308   -2.5998 H   0  0  0  0  0  0  0  0  0  0  0  0
    2.7910   -2.3982   -1.3045 H   0  0  0  0  0  0  0  0  0  0  0  0
    0.2634    1.1589   -1.4255 H   0  0  0  0  0  0  0  0  0  0  0  0
    0.4822    0.2012   -2.8838 H   0  0  0  0  0  0  0  0  0  0  0  0
   -8.2599    0.7012    1.9931 H   0  0  0  0  0  0  0  0  0  0  0  0
   -6.9278    1.8553    1.8959 H   0  0  0  0  0  0  0  0  0  0  0  0
   -7.6159    2.7141   -0.2045 H   0  0  0  0  0  0  0  0  0  0  0  0
   -9.0835    2.5841    0.7304 H   0  0  0  0  0  0  0  0  0  0  0  0
  1  2  1  0
  2  3  1  0
  3  4  1  0
  4  5  2  0
  5  6  1  0
  6  7  2  0
  7  8  1  0
  8  9  2  0
  9 10  1  0
 10 11  2  0
 11 12  1  0
 12 13  1  0
 13 14  1  0
 14 15  1  0
 15 16  1  0
 16 17  1  0
 17 18  2  0
 17 19  1  0
 19 20  1  0
 20 21  1  0
 21 22  1  0
 22 23  1  0
 23 24  1  0
 24 25  1  0
 25 26  2  0
 26 27  1  0
 27 28  2  0
 28 29  1  0
 29 30  2  0
 30 31  1  0
 31 32  2  0
 32 33  1  0
 33 34  1  0
 34 35  1  0
 34 36  1  0
 36 37  1  0
 24 38  1  0
 38 39  1  0
 21 40  1  0
  5 41  1  0
 41 42  1  0
 42  2  1  0
 11  6  1  0
 16 12  1  0
 40 19  1  0
 39 21  1  0
 30 25  1  0
 37 31  1  0
  1 43  1  0
  1 44  1  0
  1 45  1  0
  3 46  1  0
  3 47  1  0
  4 48  1  0
  7 49  1  0
  8 50  1  0
  9 51  1  0
 10 52  1  0
 12 53  1  6
 13 54  1  0
 13 55  1  0
 14 56  1  0
 14 57  1  0
 15 58  1  0
 15 59  1  0
 19 60  1  0
 20 61  1  0
 20 62  1  0
 22 63  1  0
 22 64  1  0
 23 65  1  0
 23 66  1  0
 26 67  1  0
 27 68  1  0
 28 69  1  0
 29 70  1  0
 32 71  1  0
 33 72  1  0
 33 73  1  0
 35 74  1  0
 35 75  1  0
 35 76  1  0
 36 77  1  0
 36 78  1  0
 37 79  1  0
 37 80  1  0
 38 81  1  0
 38 82  1  0
 39 83  1  0
 39 84  1  0
 40 85  1  0
 40 86  1  0
 41 87  1  0
 41 88  1  0
 42 89  1  0
 42 90  1  0
M  END
$$$$

     RDKit          3D

 90 96  0  0  0  0  0  0  0  0999 V2000
   -6.4103    0.5564   -2.6676 C   0  0  0  0  0  0  0  0  0  0  0  0
   -5.0030    0.3301   -2.3439 N   0  0  0  0  0  0  0  0  0  0  0  0
   -4.8096   -0.9222   -1.5980 C   0  0  0  0  0  0  0  0  0  0  0  0
   -5.1000   -0.8414   -0.1258 C   0  0  0  0  0  0  0  0  0  0  0  0
   -5.1958    0.3260    0.5367 C   0  0  0  0  0  0  0  0  0  0  0  0
   -5.6232    0.3485    1.9460 C   0  0  0  0  0  0  0  0  0  0  0  0
   -7.0076    0.1538    2.1462 C   0  0  0  0  0  0  0  0  0  0  0  0
   -7.5669    0.1668    3.4190 C   0  0  0  0  0  0  0  0  0  0  0  0
   -6.7485    0.3812    4.5145 C   0  0  0  0  0  0  0  0  0  0  0  0
   -5.3751    0.5741    4.3344 C   0  0  0  0  0  0  0  0  0  0  0  0
   -4.7676    0.5486    3.0571 C   0  0  0  0  0  0  0  0  0  0  0  0
   -3.2553    0.7810    2.9012 C   0  0  1  0  0  0  0  0  0  0  0  0
   -2.4246    0.8356    4.1961 C   0  0  0  0  0  0  0  0  0  0  0  0
   -2.2388   -0.6391    4.5557 C   0  0  0  0  0  0  0  0  0  0  0  0
   -2.1600   -1.3372    3.1992 C   0  0  0  0  0  0  0  0  0  0  0  0
   -2.5871   -0.3383    2.2281 N   0  0  0  0  0  0  0  0  0  0  0  0
   -1.8835   -0.1208    1.0417 C   0  0  0  0  0  0  0  0  0  0  0  0
   -1.8316    1.0029    0.5291 O   0  0  0  0  0  0  0  0  0  0  0  0
   -1.1954   -1.3701    0.4115 C   0  0  0  0  0  0  0  0  0  0  0  0
   -0.8864   -1.3327   -1.1046 C   0  0  0  0  0  0  0  0  0  0  0  0
    0.6263   -1.1419   -0.7964 C   0  0  0  0  0  0  0  0  0  0  0  0
    1.5519   -2.1390   -1.5159 C   0  0  0  0  0  0  0  0  0  0  0  0
    2.2998   -1.4418   -2.6506 C   0  0  0  0  0  0  0  0  0  0  0  0
    3.1704   -0.4152   -2.0724 N   0  0  0  0  0  0  0  0  0  0  0  0
    4.1604    0.1879   -2.8608 C   0  0  0  0  0  0  0  0  0  0  0  0
    3.9850    0.3265   -4.2517 C   0  0  0  0  0  0  0  0  0  0  0  0
    4.9351    0.9581   -5.0606 C   0  0  0  0  0  0  0  0  0  0  0  0
    6.0979    1.4662   -4.4996 C   0  0  0  0  0  0  0  0  0  0  0  0
    6.3138    1.3320   -3.1310 C   0  0  0  0  0  0  0  0  0  0  0  0
    5.3669    0.6938   -2.3048 C   0  0  0  0  0  0  0  0  0  0  0  0
    5.7384    0.5271   -0.8829 C   0  0  0  0  0  0  0  0  0  0  0  0
    5.8522    1.5888   -0.0633 C   0  0  0  0  0  0  0  0  0  0  0  0
    6.2227    1.4683    1.3886 C   0  0  0  0  0  0  0  0  0  0  0  0
    6.7768    0.1667    1.7926 N   0  0  0  0  0  0  0  0  0  0  0  0
    8.2055    0.0769    1.4937 C   0  0  0  0  0  0  0  0  0  0  0  0
    6.0164   -0.9277    1.1634 C   0  0  0  0  0  0  0  0  0  0  0  0
    5.9679   -0.8741   -0.3749 C   0  0  0  0  0  0  0  0  0  0  0  0
    2.6128    0.4075   -0.9837 C   0  0  0  0  0  0  0  0  0  0  0  0
    1.0871    0.3189   -0.9572 C   0  0  0  0  0  0  0  0  0  0  0  0
    0.3173   -1.5631    0.6669 C   0  0  0  0  0  0  0  0  0  0  0  0
   -4.9854    1.6413   -0.1680 C   0  0  0  0  0  0  0  0  0  0  0  0
   -4.4245    1.4604   -1.5935 C   0  0  0  0  0  0  0  0  0  0  0  0
   -6.7852   -0.2485   -3.3099 H   0  0  0  0  0  0  0  0  0  0  0  0
   -6.5270    1.4852   -3.2371 H   0  0  0  0  0  0  0  0  0  0  0  0
   -7.0574    0.6130   -1.7859 H   0  0  0  0  0  0  0  0  0  0  0  0
   -5.4207   -1.7180   -2.0420 H   0  0  0  0  0  0  0  0  0  0  0  0
   -3.7711   -1.2490   -1.7223 H   0  0  0  0  0  0  0  0  0  0  0  0
   -5.2534   -1.7841    0.3920 H   0  0  0  0  0  0  0  0  0  0  0  0
   -7.6626   -0.0030    1.2904 H   0  0  0  0  0  0  0  0  0  0  0  0
   -8.6348    0.0181    3.5490 H   0  0  0  0  0  0  0  0  0  0  0  0
   -7.1731    0.4035    5.5150 H   0  0  0  0  0  0  0  0  0  0  0  0
   -4.7957    0.7450    5.2365 H   0  0  0  0  0  0  0  0  0  0  0  0
   -3.1240    1.7254    2.3624 H   0  0  0  0  0  0  0  0  0  0  0  0
   -1.4376    1.2644    3.9725 H   0  0  0  0  0  0  0  0  0  0  0  0
   -2.8475    1.4349    5.0051 H   0  0  0  0  0  0  0  0  0  0  0  0
   -3.0914   -1.0204    5.1275 H   0  0  0  0  0  0  0  0  0  0  0  0
   -1.3400   -0.8060    5.1572 H   0  0  0  0  0  0  0  0  0  0  0  0
   -1.1408   -1.6772    3.0020 H   0  0  0  0  0  0  0  0  0  0  0  0
   -2.8407   -2.1926    3.1485 H   0  0  0  0  0  0  0  0  0  0  0  0
   -1.7648   -2.2804    0.6506 H   0  0  0  0  0  0  0  0  0  0  0  0
   -1.1423   -2.2718   -1.6104 H   0  0  0  0  0  0  0  0  0  0  0  0
   -1.3608   -0.5215   -1.6662 H   0  0  0  0  0  0  0  0  0  0  0  0
    2.2875   -2.5423   -0.8069 H   0  0  0  0  0  0  0  0  0  0  0  0
    0.9901   -2.9950   -1.9061 H   0  0  0  0  0  0  0  0  0  0  0  0
    1.5843   -1.0052   -3.3579 H   0  0  0  0  0  0  0  0  0  0  0  0
    2.9017   -2.1867   -3.1848 H   0  0  0  0  0  0  0  0  0  0  0  0
    3.0789   -0.0310   -4.7314 H   0  0  0  0  0  0  0  0  0  0  0  0
    4.7565    1.0559   -6.1280 H   0  0  0  0  0  0  0  0  0  0  0  0
    6.8391    1.9570   -5.1236 H   0  0  0  0  0  0  0  0  0  0  0  0
    7.2407    1.7103   -2.7052 H   0  0  0  0  0  0  0  0  0  0  0  0
    5.6495    2.5917   -0.4294 H   0  0  0  0  0  0  0  0  0  0  0  0
    6.9195    2.2734    1.6530 H   0  0  0  0  0  0  0  0  0  0  0  0
    5.3176    1.6565    1.9800 H   0  0  0  0  0  0  0  0  0  0  0  0
    8.7587    0.8341    2.0608 H   0  0  0  0  0  0  0  0  0  0  0  0
    8.4383    0.2141    0.4325 H   0  0  0  0  0  0  0  0  0  0  0  0
    8.6021   -0.8950    1.8084 H   0  0  0  0  0  0  0  0  0  0  0  0
    6.4185   -1.8972    1.4833 H   0  0  0  0  0  0  0  0  0  0  0  0
    4.9895   -0.8988    1.5530 H   0  0  0  0  0  0  0  0  0  0  0  0
    6.9146   -1.2457   -0.7867 H   0  0  0  0  0  0  0  0  0  0  0  0
    5.1848   -1.5602   -0.7144 H   0  0  0  0  0  0  0  0  0  0  0  0
    3.0112    0.0477   -0.0282 H   0  0  0  0  0  0  0  0  0  0  0  0
    2.8887    1.4641   -1.0891 H   0  0  0  0  0  0  0  0  0  0  0  0
    0.7020    0.9500   -0.1493 H   0  0  0  0  0  0  0  0  0  0  0  0
    0.6921    0.7333   -1.8942 H   0  0  0  0  0  0  0  0  0  0  0  0
    0.7512   -0.9226    1.4419 H   0  0  0  0  0  0  0  0  0  0  0  0
    0.5734   -2.6014    0.9117 H   0  0  0  0  0  0  0  0  0  0  0  0
   -5.9464    2.1687   -0.2229 H   0  0  0  0  0  0  0  0  0  0  0  0
   -4.3027    2.2836    0.3984 H   0  0  0  0  0  0  0  0  0  0  0  0
   -3.3392    1.3105   -1.5414 H   0  0  0  0  0  0  0  0  0  0  0  0
   -4.5557    2.3925   -2.1574 H   0  0  0  0  0  0  0  0  0  0  0  0
  1  2  1  0
  2  3  1  0
  3  4  1  0
  4  5  2  0
  5  6  1  0
  6  7  2  0
  7  8  1  0
  8  9  2  0
  9 10  1  0
 10 11  2  0
 11 12  1  0
 12 13  1  0
 13 14  1  0
 14 15  1  0
 15 16  1  0
 16 17  1  0
 17 18  2  0
 17 19  1  0
 19 20  1  0
 20 21  1  0
 21 22  1  0
 22 23  1  0
 23 24  1  0
 24 25  1  0
 25 26  2  0
 26 27  1  0
 27 28  2  0
 28 29  1  0
 29 30  2  0
 30 31  1  0
 31 32  2  0
 32 33  1  0
 33 34  1  0
 34 35  1  0
 34 36  1  0
 36 37  1  0
 24 38  1  0
 38 39  1  0
 21 40  1  0
  5 41  1  0
 41 42  1  0
 42  2  1  0
 11  6  1  0
 16 12  1  0
 40 19  1  0
 39 21  1  0
 30 25  1  0
 37 31  1  0
  1 43  1  0
  1 44  1  0
  1 45  1  0
  3 46  1  0
  3 47  1  0
  4 48  1  0
  7 49  1  0
  8 50  1  0
  9 51  1  0
 10 52  1  0
 12 53  1  6
 13 54  1  0
 13 55  1  0
 14 56  1  0
 14 57  1  0
 15 58  1  0
 15 59  1  0
 19 60  1  0
 20 61  1  0
 20 62  1  0
 22 63  1  0
 22 64  1  0
 23 65  1  0
 23 66  1  0
 26 67  1  0
 27 68  1  0
 28 69  1  0
 29 70  1  0
 32 71  1  0
 33 72  1  0
 33 73  1  0
 35 74  1  0
 35 75  1  0
 35 76  1  0
 36 77  1  0
 36 78  1  0
 37 79  1  0
 37 80  1  0
 38 81  1  0
 38 82  1  0
 39 83  1  0
 39 84  1  0
 40 85  1  0
 40 86  1  0
 41 87  1  0
 41 88  1  0
 42 89  1  0
 42 90  1  0
M  END
$$$$
