
     RDKit          3D

 73 79  0  0  0  0  0  0  0  0999 V2000
   -0.8033   -3.8857    2.4308 O   0  0  0  0  0  0  0  0  0  0  0  0
   -0.5194   -2.9335    1.6813 C   0  0  0  0  0  0  0  0  0  0  0  0
    0.9609   -2.6466    1.3854 C   0  0  0  0  0  0  0  0  0  0  0  0
    1.5004   -2.2710   -0.0083 C   0  0  0  0  0  0  0  0  0  0  0  0
    2.5475   -1.3367    0.6788 C   0  0  0  0  0  0  0  0  0  0  0  0
    2.6390    0.0413    0.0094 C   0  0  0  0  0  0  0  0  0  0  0  0
    3.9588    0.7285    0.3566 C   0  0  0  0  0  0  0  0  0  0  0  0
    5.0824   -0.0795   -0.1289 N   0  0  0  0  0  0  0  0  0  0  0  0
    6.2874    0.5099   -0.4928 C   0  0  0  0  0  0  0  0  0  0  0  0
    7.2228   -0.1193   -1.3342 C   0  0  0  0  0  0  0  0  0  0  0  0
    8.4300    0.3529   -1.7558 N   0  0  0  0  0  0  0  0  0  0  0  0
    8.6916    1.5767   -1.2710 C   0  0  0  0  0  0  0  0  0  0  0  0
    9.8305    2.2876   -1.5305 N   0  0  0  0  0  0  0  0  0  0  0  0
    9.7828    3.4951   -0.8803 C   0  0  0  0  0  0  0  0  0  0  0  0
    8.5882    3.5551   -0.1921 C   0  0  0  0  0  0  0  0  0  0  0  0
    7.8892    2.3416   -0.4373 C   0  0  0  0  0  0  0  0  0  0  0  0
    6.6564    1.7878   -0.0424 C   0  0  0  0  0  0  0  0  0  0  0  0
    4.9137   -1.5369   -0.1782 C   0  0  0  0  0  0  0  0  0  0  0  0
    3.9262   -1.9852    0.8984 C   0  0  0  0  0  0  0  0  0  0  0  0
    1.6489   -1.3897    1.9561 C   0  0  0  0  0  0  0  0  0  0  0  0
   -1.5597   -2.1776    1.1245 N   0  0  0  0  0  0  0  0  0  0  0  0
   -1.4239   -0.9300    0.3730 C   0  0  0  0  0  0  0  0  0  0  0  0
   -2.5564    0.0399    0.7007 C   0  0  0  0  0  0  0  0  0  0  0  0
   -3.9225   -0.5716    0.3340 C   0  0  0  0  0  0  0  0  0  0  0  0
   -3.9117   -2.1066    0.3479 C   0  0  0  0  0  0  0  0  0  0  0  0
   -2.9312   -2.6239    1.3941 C   0  0  0  0  0  0  0  0  0  0  0  0
   -4.5690    0.0090   -0.9653 C   0  0  0  0  0  0  0  0  0  0  0  0
   -5.2819    1.0675   -0.0830 C   0  0  0  0  0  0  0  0  0  0  0  0
   -6.6625    1.5918   -0.4730 C   0  0  2  0  0  0  0  0  0  0  0  0
   -7.7068    0.4889   -0.7053 C   0  0  0  0  0  0  0  0  0  0  0  0
   -9.0037    1.0293   -1.0071 O   0  0  0  0  0  0  0  0  0  0  0  0
   -8.9361    2.2796   -1.7067 C   0  0  0  0  0  0  0  0  0  0  0  0
   -7.6402    2.4302   -2.4988 C   0  0  0  0  0  0  0  0  0  0  0  0
   -6.4873    2.4122   -1.6460 O   0  0  0  0  0  0  0  0  0  0  0  0
   -5.1171    0.0839    1.1051 C   0  0  0  0  0  0  0  0  0  0  0  0
    1.5257   -3.5332    1.7301 H   0  0  0  0  0  0  0  0  0  0  0  0
    0.8039   -1.7603   -0.6766 H   0  0  0  0  0  0  0  0  0  0  0  0
    1.9205   -3.1104   -0.5739 H   0  0  0  0  0  0  0  0  0  0  0  0
    2.5819   -0.0740   -1.0815 H   0  0  0  0  0  0  0  0  0  0  0  0
    1.7975    0.6806    0.2991 H   0  0  0  0  0  0  0  0  0  0  0  0
    4.0465    0.8723    1.4401 H   0  0  0  0  0  0  0  0  0  0  0  0
    3.9482    1.7157   -0.1206 H   0  0  0  0  0  0  0  0  0  0  0  0
    7.0031   -1.1000   -1.7497 H   0  0  0  0  0  0  0  0  0  0  0  0
   10.5786    1.9470   -2.1160 H   0  0  0  0  0  0  0  0  0  0  0  0
   10.5984    4.2009   -0.9627 H   0  0  0  0  0  0  0  0  0  0  0  0
    8.2542    4.3818    0.4207 H   0  0  0  0  0  0  0  0  0  0  0  0
    6.0245    2.3571    0.6285 H   0  0  0  0  0  0  0  0  0  0  0  0
    5.8630   -2.0513    0.0134 H   0  0  0  0  0  0  0  0  0  0  0  0
    4.5597   -1.8320   -1.1731 H   0  0  0  0  0  0  0  0  0  0  0  0
    3.8551   -3.0790    0.9064 H   0  0  0  0  0  0  0  0  0  0  0  0
    4.3224   -1.6899    1.8792 H   0  0  0  0  0  0  0  0  0  0  0  0
    0.9924   -0.5269    2.1046 H   0  0  0  0  0  0  0  0  0  0  0  0
    2.1759   -1.5537    2.9026 H   0  0  0  0  0  0  0  0  0  0  0  0
   -1.4391   -1.1873   -0.6922 H   0  0  0  0  0  0  0  0  0  0  0  0
   -0.4753   -0.4463    0.5922 H   0  0  0  0  0  0  0  0  0  0  0  0
   -2.3919    0.9893    0.1785 H   0  0  0  0  0  0  0  0  0  0  0  0
   -2.5252    0.2596    1.7759 H   0  0  0  0  0  0  0  0  0  0  0  0
   -4.9128   -2.5090    0.5397 H   0  0  0  0  0  0  0  0  0  0  0  0
   -3.6064   -2.4830   -0.6374 H   0  0  0  0  0  0  0  0  0  0  0  0
   -2.9656   -3.7188    1.4166 H   0  0  0  0  0  0  0  0  0  0  0  0
   -3.2012   -2.2603    2.3930 H   0  0  0  0  0  0  0  0  0  0  0  0
   -3.8755    0.4134   -1.7091 H   0  0  0  0  0  0  0  0  0  0  0  0
   -5.2404   -0.6898   -1.4765 H   0  0  0  0  0  0  0  0  0  0  0  0
   -4.6318    1.9457    0.0673 H   0  0  0  0  0  0  0  0  0  0  0  0
   -7.0248    2.2606    0.3180 H   0  0  0  0  0  0  0  0  0  0  0  0
   -7.8262   -0.1489    0.1741 H   0  0  0  0  0  0  0  0  0  0  0  0
   -7.4274   -0.1560   -1.5451 H   0  0  0  0  0  0  0  0  0  0  0  0
   -9.8052    2.3393   -2.3686 H   0  0  0  0  0  0  0  0  0  0  0  0
   -9.0231    3.0769   -0.9602 H   0  0  0  0  0  0  0  0  0  0  0  0
   -7.6314    3.3747   -3.0508 H   0  0  0  0  0  0  0  0  0  0  0  0
   -7.5307    1.6148   -3.2226 H   0  0  0  0  0  0  0  0  0  0  0  0
   -5.9652   -0.5890    1.2695 H   0  0  0  0  0  0  0  0  0  0  0  0
   -4.8766    0.5544    2.0635 H   0  0  0  0  0  0  0  0  0  0  0  0
  1  2  2  0
  2  3  1  0
  3  4  1  0
  4  5  1  0
  5  6  1  0
  6  7  1  0
  7  8  1  0
  8  9  1  0
  9 10  2  0
 10 11  1  0
 11 12  2  0
 12 13  1  0
 13 14  1  0
 14 15  2  0
 15 16  1  0
 16 17  2  0
  8 18  1  0
 18 19  1  0
  5 20  1  0
  2 21  1  0
 21 22  1  0
 22 23  1  0
 23 24  1  0
 24 25  1  0
 25 26  1  0
 24 27  1  0
 27 28  1  0
 28 29  1  0
 29 30  1  0
 30 31  1  0
 31 32  1  0
 32 33  1  0
 33 34  1  0
 28 35  1  0
 20  3  1  0
 26 21  1  0
 34 29  1  0
 19  5  1  0
 35 24  1  0
 17  9  1  0
 16 12  1  0
  3 36  1  0
  4 37  1  0
  4 38  1  0
  6 39  1  0
  6 40  1  0
  7 41  1  0
  7 42  1  0
 10 43  1  0
 13 44  1  0
 14 45  1  0
 15 46  1  0
 17 47  1  0
 18 48  1  0
 18 49  1  0
 19 50  1  0
 19 51  1  0
 20 52  1  0
 20 53  1  0
 22 54  1  0
 22 55  1  0
 23 56  1  0
 23 57  1  0
 25 58  1  0
 25 59  1  0
 26 60  1  0
 26 61  1  0
 27 62  1  0
 27 63  1  0
 28 64  1  0
 29 65  1  1
 30 66  1  0
 30 67  1  0
 32 68  1  0
 32 69  1  0
 33 70  1  0
 33 71  1  0
 35 72  1  0
 35 73  1  0
M  END
$$$$

     RDKit          3D

 73 79  0  0  0  0  0  0  0  0999 V2000
   -0.0063    1.6619    2.3184 O   0  0  0  0  0  0  0  0  0  0  0  0
   -0.2128    1.0757    1.2482 C   0  0  0  0  0  0  0  0  0  0  0  0
    0.9460    0.6243    0.3127 C   0  0  0  0  0  0  0  0  0  0  0  0
    1.5717   -0.7687    0.5864 C   0  0  0  0  0  0  0  0  0  0  0  0
    2.9724   -0.1745    0.2431 C   0  0  0  0  0  0  0  0  0  0  0  0
    3.3584   -0.3713   -1.2367 C   0  0  0  0  0  0  0  0  0  0  0  0
    4.8506   -0.1103   -1.4373 C   0  0  0  0  0  0  0  0  0  0  0  0
    5.6602   -1.0458   -0.6275 N   0  0  0  0  0  0  0  0  0  0  0  0
    7.0173   -0.6867   -0.5633 C   0  0  0  0  0  0  0  0  0  0  0  0
    7.7838   -0.5602   -1.7366 C   0  0  0  0  0  0  0  0  0  0  0  0
    9.0941   -0.2078   -1.8467 N   0  0  0  0  0  0  0  0  0  0  0  0
    9.6572    0.0207   -0.6493 C   0  0  0  0  0  0  0  0  0  0  0  0
   10.9615    0.3872   -0.4635 N   0  0  0  0  0  0  0  0  0  0  0  0
   11.2140    0.5449    0.8760 C   0  0  0  0  0  0  0  0  0  0  0  0
   10.0465    0.2716    1.5589 C   0  0  0  0  0  0  0  0  0  0  0  0
    9.0540   -0.0649    0.5978 C   0  0  0  0  0  0  0  0  0  0  0  0
    7.6945   -0.4302    0.6373 C   0  0  0  0  0  0  0  0  0  0  0  0
    4.9998   -1.6200    0.5566 C   0  0  0  0  0  0  0  0  0  0  0  0
    4.0977   -0.5785    1.2114 C   0  0  0  0  0  0  0  0  0  0  0  0
    2.3577    1.2171    0.5802 C   0  0  0  0  0  0  0  0  0  0  0  0
   -1.5180    0.8054    0.8263 N   0  0  0  0  0  0  0  0  0  0  0  0
   -1.8498    0.0304   -0.3695 C   0  0  0  0  0  0  0  0  0  0  0  0
   -3.1988   -0.6676   -0.2287 C   0  0  0  0  0  0  0  0  0  0  0  0
   -4.3248    0.3551    0.0192 C   0  0  0  0  0  0  0  0  0  0  0  0
   -3.8390    1.6220    0.7407 C   0  0  0  0  0  0  0  0  0  0  0  0
   -2.6362    1.3111    1.6238 C   0  0  0  0  0  0  0  0  0  0  0  0
   -5.6116   -0.2916    0.6318 C   0  0  0  0  0  0  0  0  0  0  0  0
   -6.1548   -0.4677   -0.8107 C   0  0  0  0  0  0  0  0  0  0  0  0
   -7.6519   -0.3693   -1.0943 C   0  0  2  0  0  0  0  0  0  0  0  0
   -8.2989    0.9311   -0.5952 C   0  0  0  0  0  0  0  0  0  0  0  0
   -9.7098    0.9271   -0.8721 O   0  0  0  0  0  0  0  0  0  0  0  0
  -10.3301   -0.2027   -0.2424 C   0  0  0  0  0  0  0  0  0  0  0  0
   -9.6924   -1.5011   -0.7308 C   0  0  0  0  0  0  0  0  0  0  0  0
   -8.2828   -1.5012   -0.4626 O   0  0  0  0  0  0  0  0  0  0  0  0
   -5.2012    0.6800   -1.2343 C   0  0  0  0  0  0  0  0  0  0  0  0
    0.6866    0.7616   -0.7470 H   0  0  0  0  0  0  0  0  0  0  0  0
    1.4548   -1.1012    1.6254 H   0  0  0  0  0  0  0  0  0  0  0  0
    1.2192   -1.5744   -0.0649 H   0  0  0  0  0  0  0  0  0  0  0  0
    2.7773    0.2892   -1.8905 H   0  0  0  0  0  0  0  0  0  0  0  0
    3.1316   -1.3993   -1.5484 H   0  0  0  0  0  0  0  0  0  0  0  0
    5.0840   -0.2350   -2.5008 H   0  0  0  0  0  0  0  0  0  0  0  0
    5.0753    0.9279   -1.1581 H   0  0  0  0  0  0  0  0  0  0  0  0
    7.3245   -0.7781   -2.6987 H   0  0  0  0  0  0  0  0  0  0  0  0
   11.6170    0.5157   -1.2200 H   0  0  0  0  0  0  0  0  0  0  0  0
   12.1960    0.8361    1.2238 H   0  0  0  0  0  0  0  0  0  0  0  0
    9.9206    0.3092    2.6329 H   0  0  0  0  0  0  0  0  0  0  0  0
    7.1984   -0.4746    1.5984 H   0  0  0  0  0  0  0  0  0  0  0  0
    5.7112   -2.0337    1.2794 H   0  0  0  0  0  0  0  0  0  0  0  0
    4.3960   -2.4757    0.2279 H   0  0  0  0  0  0  0  0  0  0  0  0
    3.6893   -0.9733    2.1484 H   0  0  0  0  0  0  0  0  0  0  0  0
    4.6964    0.3029    1.4751 H   0  0  0  0  0  0  0  0  0  0  0  0
    2.5198    1.5398    1.6161 H   0  0  0  0  0  0  0  0  0  0  0  0
    2.6494    2.0406   -0.0790 H   0  0  0  0  0  0  0  0  0  0  0  0
   -1.0745   -0.7169   -0.5574 H   0  0  0  0  0  0  0  0  0  0  0  0
   -1.8603    0.7277   -1.2152 H   0  0  0  0  0  0  0  0  0  0  0  0
   -3.1419   -1.3646    0.6178 H   0  0  0  0  0  0  0  0  0  0  0  0
   -3.3970   -1.2716   -1.1214 H   0  0  0  0  0  0  0  0  0  0  0  0
   -4.6397    2.0695    1.3402 H   0  0  0  0  0  0  0  0  0  0  0  0
   -3.5424    2.3764   -0.0003 H   0  0  0  0  0  0  0  0  0  0  0  0
   -2.8831    0.5416    2.3647 H   0  0  0  0  0  0  0  0  0  0  0  0
   -2.3340    2.2125    2.1673 H   0  0  0  0  0  0  0  0  0  0  0  0
   -6.1972    0.3850    1.2632 H   0  0  0  0  0  0  0  0  0  0  0  0
   -5.4690   -1.2236    1.1876 H   0  0  0  0  0  0  0  0  0  0  0  0
   -5.8071   -1.4239   -1.2361 H   0  0  0  0  0  0  0  0  0  0  0  0
   -7.8160   -0.4620   -2.1759 H   0  0  0  0  0  0  0  0  0  0  0  0
   -8.1685    1.0685    0.4833 H   0  0  0  0  0  0  0  0  0  0  0  0
   -7.8742    1.8031   -1.0997 H   0  0  0  0  0  0  0  0  0  0  0  0
  -11.3961   -0.1847   -0.4874 H   0  0  0  0  0  0  0  0  0  0  0  0
  -10.2242   -0.0981    0.8436 H   0  0  0  0  0  0  0  0  0  0  0  0
   -9.8416   -1.6299   -1.8090 H   0  0  0  0  0  0  0  0  0  0  0  0
  -10.1346   -2.3602   -0.2178 H   0  0  0  0  0  0  0  0  0  0  0  0
   -4.7169    0.5476   -2.2067 H   0  0  0  0  0  0  0  0  0  0  0  0
   -5.6470    1.6805   -1.2143 H   0  0  0  0  0  0  0  0  0  0  0  0
  1  2  2  0
  2  3  1  0
  3  4  1  0
  4  5  1  0
  5  6  1  0
  6  7  1  0
  7  8  1  0
  8  9  1  0
  9 10  2  0
 10 11  1  0
 11 12  2  0
 12 13  1  0
 13 14  1  0
 14 15  2  0
 15 16  1  0
 16 17  2  0
  8 18  1  0
 18 19  1  0
  5 20  1  0
  2 21  1  0
 21 22  1  0
 22 23  1  0
 23 24  1  0
 24 25  1  0
 25 26  1  0
 24 27  1  0
 27 28  1  0
 28 29  1  0
 29 30  1  0
 30 31  1  0
 31 32  1  0
 32 33  1  0
 33 34  1  0
 28 35  1  0
 20  3  1  0
 26 21  1  0
 34 29  1  0
 19  5  1  0
 35 24  1  0
 17  9  1  0
 16 12  1  0
  3 36  1  0
  4 37  1  0
  4 38  1  0
  6 39  1  0
  6 40  1  0
  7 41  1  0
  7 42  1  0
 10 43  1  0
 13 44  1  0
 14 45  1  0
 15 46  1  0
 17 47  1  0
 18 48  1  0
 18 49  1  0
 19 50  1  0
 19 51  1  0
 20 52  1  0
 20 53  1  0
 22 54  1  0
 22 55  1  0
 23 56  1  0
 23 57  1  0
 25 58  1  0
 25 59  1  0
 26 60  1  0
 26 61  1  0
 27 62  1  0
 27 63  1  0
 28 64  1  0
 29 65  1  6
 30 66  1  0
 30 67  1  0
 32 68  1  0
 32 69  1  0
 33 70  1  0
 33 71  1  0
 35 72  1  0
 35 73  1  0
M  END
$$$$

     RDKit          3D

 73 79  0  0  0  0  0  0  0  0999 V2000
   -0.4600   -2.6217   -2.3490 O   0  0  0  0  0  0  0  0  0  0  0  0
   -0.5073   -2.0541   -1.2497 C   0  0  0  0  0  0  0  0  0  0  0  0
    0.7820   -1.6465   -0.4844 C   0  0  0  0  0  0  0  0  0  0  0  0
    1.2508   -0.1711   -0.6055 C   0  0  0  0  0  0  0  0  0  0  0  0
    2.7255   -0.6723   -0.6346 C   0  0  0  0  0  0  0  0  0  0  0  0
    3.4030   -0.7588    0.7448 C   0  0  0  0  0  0  0  0  0  0  0  0
    4.3608    0.4133    0.9569 C   0  0  0  0  0  0  0  0  0  0  0  0
    5.4083    0.3957   -0.0697 N   0  0  0  0  0  0  0  0  0  0  0  0
    6.6774    0.8978    0.1925 C   0  0  0  0  0  0  0  0  0  0  0  0
    6.9433    1.8048    1.2340 C   0  0  0  0  0  0  0  0  0  0  0  0
    8.1384    2.3570    1.5879 N   0  0  0  0  0  0  0  0  0  0  0  0
    9.1412    1.9398    0.7993 C   0  0  0  0  0  0  0  0  0  0  0  0
   10.4448    2.3322    0.9277 N   0  0  0  0  0  0  0  0  0  0  0  0
   11.2113    1.7192   -0.0315 C   0  0  0  0  0  0  0  0  0  0  0  0
   10.3784    0.9198   -0.7874 C   0  0  0  0  0  0  0  0  0  0  0  0
    9.0623    1.0566   -0.2674 C   0  0  0  0  0  0  0  0  0  0  0  0
    7.7947    0.5257   -0.5729 C   0  0  0  0  0  0  0  0  0  0  0  0
    5.0664   -0.1372   -1.3942 C   0  0  0  0  0  0  0  0  0  0  0  0
    3.5786    0.0700   -1.6709 C   0  0  0  0  0  0  0  0  0  0  0  0
    2.1473   -2.0378   -1.1183 C   0  0  0  0  0  0  0  0  0  0  0  0
   -1.7435   -1.7677   -0.6434 N   0  0  0  0  0  0  0  0  0  0  0  0
   -2.9452   -1.9854   -1.4504 C   0  0  0  0  0  0  0  0  0  0  0  0
   -4.1706   -2.2911   -0.5947 C   0  0  0  0  0  0  0  0  0  0  0  0
   -4.3574   -1.2010    0.4625 C   0  0  0  0  0  0  0  0  0  0  0  0
   -3.0971   -1.0917    1.3297 C   0  0  0  0  0  0  0  0  0  0  0  0
   -1.8742   -0.8138    0.4584 C   0  0  0  0  0  0  0  0  0  0  0  0
   -4.9446    0.1474   -0.0645 C   0  0  0  0  0  0  0  0  0  0  0  0
   -5.8699    0.1777    1.1804 C   0  0  0  0  0  0  0  0  0  0  0  0
   -7.2710    0.7781    1.0818 C   0  0  2  0  0  0  0  0  0  0  0  0
   -8.1306    0.1766   -0.0407 C   0  0  0  0  0  0  0  0  0  0  0  0
   -9.4584    0.7257   -0.0561 O   0  0  0  0  0  0  0  0  0  0  0  0
   -9.5028    2.0868    0.3944 C   0  0  0  0  0  0  0  0  0  0  0  0
   -8.1761    2.8107    0.1805 C   0  0  0  0  0  0  0  0  0  0  0  0
   -7.1099    2.2023    0.9220 O   0  0  0  0  0  0  0  0  0  0  0  0
   -5.6745   -1.3578    1.2844 C   0  0  0  0  0  0  0  0  0  0  0  0
    0.7497   -1.9963    0.5578 H   0  0  0  0  0  0  0  0  0  0  0  0
    0.9867    0.4789    0.2342 H   0  0  0  0  0  0  0  0  0  0  0  0
    0.9177    0.3173   -1.5302 H   0  0  0  0  0  0  0  0  0  0  0  0
    2.6620   -0.7814    1.5522 H   0  0  0  0  0  0  0  0  0  0  0  0
    3.9756   -1.6931    0.8174 H   0  0  0  0  0  0  0  0  0  0  0  0
    4.7900    0.3069    1.9603 H   0  0  0  0  0  0  0  0  0  0  0  0
    3.8199    1.3662    0.9163 H   0  0  0  0  0  0  0  0  0  0  0  0
    6.1298    2.1648    1.8592 H   0  0  0  0  0  0  0  0  0  0  0  0
   10.7654    2.9771    1.6344 H   0  0  0  0  0  0  0  0  0  0  0  0
   12.2754    1.9036   -0.0912 H   0  0  0  0  0  0  0  0  0  0  0  0
   10.6829    0.3039   -1.6233 H   0  0  0  0  0  0  0  0  0  0  0  0
    7.7127   -0.1858   -1.3858 H   0  0  0  0  0  0  0  0  0  0  0  0
    5.6216    0.3830   -2.1839 H   0  0  0  0  0  0  0  0  0  0  0  0
    5.3223   -1.2024   -1.4395 H   0  0  0  0  0  0  0  0  0  0  0  0
    3.3385   -0.2556   -2.6895 H   0  0  0  0  0  0  0  0  0  0  0  0
    3.3585    1.1453   -1.6279 H   0  0  0  0  0  0  0  0  0  0  0  0
    2.6115   -2.9357   -0.6985 H   0  0  0  0  0  0  0  0  0  0  0  0
    2.1179   -2.1553   -2.2084 H   0  0  0  0  0  0  0  0  0  0  0  0
   -2.7902   -2.8097   -2.1547 H   0  0  0  0  0  0  0  0  0  0  0  0
   -3.1031   -1.0758   -2.0426 H   0  0  0  0  0  0  0  0  0  0  0  0
   -4.0388   -3.2632   -0.1025 H   0  0  0  0  0  0  0  0  0  0  0  0
   -5.0542   -2.3756   -1.2383 H   0  0  0  0  0  0  0  0  0  0  0  0
   -3.1925   -0.3019    2.0834 H   0  0  0  0  0  0  0  0  0  0  0  0
   -2.9459   -2.0334    1.8731 H   0  0  0  0  0  0  0  0  0  0  0  0
   -1.9347    0.1847    0.0098 H   0  0  0  0  0  0  0  0  0  0  0  0
   -0.9870   -0.8285    1.0945 H   0  0  0  0  0  0  0  0  0  0  0  0
   -5.4652    0.0576   -1.0240 H   0  0  0  0  0  0  0  0  0  0  0  0
   -4.2468    0.9868   -0.1375 H   0  0  0  0  0  0  0  0  0  0  0  0
   -5.3622    0.6757    2.0233 H   0  0  0  0  0  0  0  0  0  0  0  0
   -7.7877    0.6331    2.0390 H   0  0  0  0  0  0  0  0  0  0  0  0
   -7.6944    0.3705   -1.0264 H   0  0  0  0  0  0  0  0  0  0  0  0
   -8.2368   -0.9060    0.0649 H   0  0  0  0  0  0  0  0  0  0  0  0
   -9.7623    2.0703    1.4588 H   0  0  0  0  0  0  0  0  0  0  0  0
  -10.3113    2.5905   -0.1436 H   0  0  0  0  0  0  0  0  0  0  0  0
   -8.2494    3.8549    0.4985 H   0  0  0  0  0  0  0  0  0  0  0  0
   -7.8936    2.7987   -0.8781 H   0  0  0  0  0  0  0  0  0  0  0  0
   -5.5626   -1.7410    2.3036 H   0  0  0  0  0  0  0  0  0  0  0  0
   -6.4405   -1.9584    0.7827 H   0  0  0  0  0  0  0  0  0  0  0  0
  1  2  2  0
  2  3  1  0
  3  4  1  0
  4  5  1  0
  5  6  1  0
  6  7  1  0
  7  8  1  0
  8  9  1  0
  9 10  2  0
 10 11  1  0
 11 12  2  0
 12 13  1  0
 13 14  1  0
 14 15  2  0
 15 16  1  0
 16 17  2  0
  8 18  1  0
 18 19  1  0
  5 20  1  0
  2 21  1  0
 21 22  1  0
 22 23  1  0
 23 24  1  0
 24 25  1  0
 25 26  1  0
 24 27  1  0
 27 28  1  0
 28 29  1  0
 29 30  1  0
 30 31  1  0
 31 32  1  0
 32 33  1  0
 33 34  1  0
 28 35  1  0
 20  3  1  0
 26 21  1  0
 34 29  1  0
 19  5  1  0
 35 24  1  0
 17  9  1  0
 16 12  1  0
  3 36  1  0
  4 37  1  0
  4 38  1  0
  6 39  1  0
  6 40  1  0
  7 41  1  0
  7 42  1  0
 10 43  1  0
 13 44  1  0
 14 45  1  0
 15 46  1  0
 17 47  1  0
 18 48  1  0
 18 49  1  0
 19 50  1  0
 19 51  1  0
 20 52  1  0
 20 53  1  0
 22 54  1  0
 22 55  1  0
 23 56  1  0
 23 57  1  0
 25 58  1  0
 25 59  1  0
 26 60  1  0
 26 61  1  0
 27 62  1  0
 27 63  1  0
 28 64  1  0
 29 65  1  1
 30 66  1  0
 30 67  1  0
 32 68  1  0
 32 69  1  0
 33 70  1  0
 33 71  1  0
 35 72  1  0
 35 73  1  0
M  END
$$$$
